* NGSPICE file created from heichips25_ppwm.ext - technology: ihp-sg13g2

* Black-box entry subcircuit for sg13g2_decap_8 abstract view
.subckt sg13g2_decap_8 VDD VSS
.ends

* Black-box entry subcircuit for sg13g2_and2_1 abstract view
.subckt sg13g2_and2_1 A B X VDD VSS
.ends

* Black-box entry subcircuit for sg13g2_nor3_1 abstract view
.subckt sg13g2_nor3_1 A B C Y VDD VSS
.ends

* Black-box entry subcircuit for sg13g2_o21ai_1 abstract view
.subckt sg13g2_o21ai_1 B1 VDD Y VSS A1 A2
.ends

* Black-box entry subcircuit for sg13g2_tiehi abstract view
.subckt sg13g2_tiehi VDD VSS L_HI
.ends

* Black-box entry subcircuit for sg13g2_fill_1 abstract view
.subckt sg13g2_fill_1 VDD VSS
.ends

* Black-box entry subcircuit for sg13g2_nand3_1 abstract view
.subckt sg13g2_nand3_1 B C A Y VDD VSS
.ends

* Black-box entry subcircuit for sg13g2_fill_2 abstract view
.subckt sg13g2_fill_2 VDD VSS
.ends

* Black-box entry subcircuit for sg13g2_dlygate4sd3_1 abstract view
.subckt sg13g2_dlygate4sd3_1 A VDD VSS X
.ends

* Black-box entry subcircuit for sg13g2_dfrbpq_1 abstract view
.subckt sg13g2_dfrbpq_1 RESET_B VSS VDD D Q CLK
.ends

* Black-box entry subcircuit for sg13g2_nor2_1 abstract view
.subckt sg13g2_nor2_1 A B Y VDD VSS
.ends

* Black-box entry subcircuit for sg13g2_buf_8 abstract view
.subckt sg13g2_buf_8 A X VDD VSS
.ends

* Black-box entry subcircuit for sg13g2_tielo abstract view
.subckt sg13g2_tielo VDD VSS L_LO
.ends

* Black-box entry subcircuit for sg13g2_decap_4 abstract view
.subckt sg13g2_decap_4 VDD VSS
.ends

* Black-box entry subcircuit for sg13g2_a21oi_1 abstract view
.subckt sg13g2_a21oi_1 VSS VDD A1 A2 Y B1
.ends

* Black-box entry subcircuit for sg13g2_a221oi_1 abstract view
.subckt sg13g2_a221oi_1 VDD VSS B2 C1 B1 A1 Y A2
.ends

* Black-box entry subcircuit for sg13g2_nand2_1 abstract view
.subckt sg13g2_nand2_1 Y A B VDD VSS
.ends

* Black-box entry subcircuit for sg13g2_inv_1 abstract view
.subckt sg13g2_inv_1 VDD Y A VSS
.ends

* Black-box entry subcircuit for sg13g2_and4_1 abstract view
.subckt sg13g2_and4_1 A B C D X VDD VSS
.ends

* Black-box entry subcircuit for sg13g2_mux2_1 abstract view
.subckt sg13g2_mux2_1 A0 A1 S X VDD VSS
.ends

* Black-box entry subcircuit for sg13g2_xnor2_1 abstract view
.subckt sg13g2_xnor2_1 Y A B VDD VSS
.ends

* Black-box entry subcircuit for sg13g2_a22oi_1 abstract view
.subckt sg13g2_a22oi_1 Y B1 B2 A2 A1 VDD VSS
.ends

* Black-box entry subcircuit for sg13g2_dfrbpq_2 abstract view
.subckt sg13g2_dfrbpq_2 RESET_B VSS VDD D Q CLK
.ends

* Black-box entry subcircuit for sg13g2_nand2b_2 abstract view
.subckt sg13g2_nand2b_2 Y B VDD VSS A_N
.ends

* Black-box entry subcircuit for sg13g2_xor2_1 abstract view
.subckt sg13g2_xor2_1 B A X VDD VSS
.ends

* Black-box entry subcircuit for sg13g2_and3_1 abstract view
.subckt sg13g2_and3_1 X A B C VDD VSS
.ends

* Black-box entry subcircuit for sg13g2_nand2b_1 abstract view
.subckt sg13g2_nand2b_1 Y B A_N VDD VSS
.ends

* Black-box entry subcircuit for sg13g2_a21o_1 abstract view
.subckt sg13g2_a21o_1 A2 A1 B1 X VDD VSS
.ends

* Black-box entry subcircuit for sg13g2_inv_2 abstract view
.subckt sg13g2_inv_2 Y A VDD VSS
.ends

* Black-box entry subcircuit for sg13g2_nor2_2 abstract view
.subckt sg13g2_nor2_2 A B Y VDD VSS
.ends

* Black-box entry subcircuit for sg13g2_nor2b_1 abstract view
.subckt sg13g2_nor2b_1 A B_N Y VDD VSS
.ends

* Black-box entry subcircuit for sg13g2_nor4_1 abstract view
.subckt sg13g2_nor4_1 A B C D Y VDD VSS
.ends

* Black-box entry subcircuit for sg13g2_and3_2 abstract view
.subckt sg13g2_and3_2 X A B C VDD VSS
.ends

* Black-box entry subcircuit for sg13g2_or3_1 abstract view
.subckt sg13g2_or3_1 A B C X VDD VSS
.ends

* Black-box entry subcircuit for sg13g2_nand2_2 abstract view
.subckt sg13g2_nand2_2 Y A B VDD VSS
.ends

* Black-box entry subcircuit for sg13g2_buf_1 abstract view
.subckt sg13g2_buf_1 A X VDD VSS
.ends

* Black-box entry subcircuit for sg13g2_nor3_2 abstract view
.subckt sg13g2_nor3_2 A B C Y VDD VSS
.ends

* Black-box entry subcircuit for sg13g2_buf_2 abstract view
.subckt sg13g2_buf_2 A X VDD VSS
.ends

* Black-box entry subcircuit for sg13g2_nand4_1 abstract view
.subckt sg13g2_nand4_1 B C A Y VDD VSS D
.ends

* Black-box entry subcircuit for sg13g2_or2_1 abstract view
.subckt sg13g2_or2_1 VSS VDD X B A
.ends

* Black-box entry subcircuit for sg13g2_a21o_2 abstract view
.subckt sg13g2_a21o_2 A2 A1 B1 X VDD VSS
.ends

* Black-box entry subcircuit for sg13g2_mux4_1 abstract view
.subckt sg13g2_mux4_1 S0 A0 A1 A2 A3 S1 X VDD VSS
.ends

* Black-box entry subcircuit for sg13g2_nand3b_1 abstract view
.subckt sg13g2_nand3b_1 B C Y VDD VSS A_N
.ends

* Black-box entry subcircuit for sg13g2_inv_4 abstract view
.subckt sg13g2_inv_4 A Y VDD VSS
.ends

.subckt heichips25_ppwm VGND VPWR clk ena rst_n ui_in[0] ui_in[1] ui_in[2] ui_in[3]
+ ui_in[4] ui_in[5] ui_in[6] ui_in[7] uio_in[0] uio_in[1] uio_in[2] uio_in[3] uio_in[4]
+ uio_in[5] uio_in[6] uio_in[7] uio_oe[0] uio_oe[1] uio_oe[2] uio_oe[3] uio_oe[4]
+ uio_oe[5] uio_oe[6] uio_oe[7] uio_out[0] uio_out[1] uio_out[2] uio_out[3] uio_out[4]
+ uio_out[5] uio_out[6] uio_out[7] uo_out[0] uo_out[1] uo_out[2] uo_out[3] uo_out[4]
+ uo_out[5] uo_out[6] uo_out[7]
XFILLER_28_907 VPWR VGND sg13g2_decap_8
XFILLER_36_951 VPWR VGND sg13g2_decap_8
Xu_ppwm_u_ex__627_ hold306/A net325 u_ppwm_u_ex__636_/A VPWR VGND sg13g2_and2_1
XFILLER_23_623 VPWR VGND sg13g2_decap_8
XFILLER_35_1009 VPWR VGND sg13g2_decap_8
Xu_ppwm_u_ex__558_ u_ppwm_u_ex__560_/C u_ppwm_u_ex__558_/B u_ppwm_u_ex__558_/C u_ppwm_u_ex__558_/Y
+ VPWR VGND sg13g2_nor3_1
Xu_ppwm_u_ex__489_ net631 VPWR u_ppwm_u_ex__489_/Y VGND u_ppwm_u_ex__487_/Y u_ppwm_u_ex__488_/Y
+ sg13g2_o21ai_1
Xu_ppwm_u_mem__1163__154 VPWR VGND net154 sg13g2_tiehi
XFILLER_7_7 VPWR VGND sg13g2_decap_8
XFILLER_2_527 VPWR VGND sg13g2_decap_8
XFILLER_19_929 VPWR VGND sg13g2_decap_8
XFILLER_27_973 VPWR VGND sg13g2_decap_8
XFILLER_26_461 VPWR VGND sg13g2_decap_8
XFILLER_42_965 VPWR VGND sg13g2_decap_8
XFILLER_14_667 VPWR VGND sg13g2_decap_8
XFILLER_41_486 VPWR VGND sg13g2_fill_1
XFILLER_6_811 VPWR VGND sg13g2_decap_8
XFILLER_10_851 VPWR VGND sg13g2_decap_8
Xu_ppwm_u_pwm__182_ net626 u_ppwm_u_pwm__182_/C net580 u_ppwm_u_pwm__185_/B VPWR VGND
+ sg13g2_nand3_1
XFILLER_6_888 VPWR VGND sg13g2_decap_8
XFILLER_5_332 VPWR VGND sg13g2_decap_8
XFILLER_1_582 VPWR VGND sg13g2_decap_8
XFILLER_49_553 VPWR VGND sg13g2_decap_8
XFILLER_37_715 VPWR VGND sg13g2_decap_8
XFILLER_18_940 VPWR VGND sg13g2_decap_8
XFILLER_33_932 VPWR VGND sg13g2_decap_8
XFILLER_17_494 VPWR VGND sg13g2_decap_8
XFILLER_32_420 VPWR VGND sg13g2_fill_2
XFILLER_20_615 VPWR VGND sg13g2_decap_8
XFILLER_34_1020 VPWR VGND sg13g2_decap_8
XFILLER_8_181 VPWR VGND sg13g2_decap_8
XFILLER_9_682 VPWR VGND sg13g2_decap_8
XFILLER_28_704 VPWR VGND sg13g2_decap_8
XFILLER_24_965 VPWR VGND sg13g2_decap_8
XFILLER_23_497 VPWR VGND sg13g2_decap_8
XFILLER_7_608 VPWR VGND sg13g2_decap_8
XFILLER_11_659 VPWR VGND sg13g2_decap_8
XFILLER_12_32 VPWR VGND sg13g2_decap_8
XFILLER_3_803 VPWR VGND sg13g2_decap_8
XFILLER_5_4 VPWR VGND sg13g2_decap_8
XFILLER_2_324 VPWR VGND sg13g2_decap_8
Xhold170 hold170/A VPWR VGND net513 sg13g2_dlygate4sd3_1
Xhold192 hold192/A VPWR VGND net535 sg13g2_dlygate4sd3_1
Xhold181 hold181/A VPWR VGND net524 sg13g2_dlygate4sd3_1
XFILLER_19_726 VPWR VGND sg13g2_decap_8
XFILLER_46_567 VPWR VGND sg13g2_decap_8
XFILLER_15_921 VPWR VGND sg13g2_decap_8
XFILLER_27_770 VPWR VGND sg13g2_decap_8
XFILLER_42_762 VPWR VGND sg13g2_decap_8
XFILLER_41_250 VPWR VGND sg13g2_fill_2
XFILLER_14_464 VPWR VGND sg13g2_decap_8
XFILLER_15_998 VPWR VGND sg13g2_decap_8
XFILLER_30_902 VPWR VGND sg13g2_decap_8
Xu_ppwm_u_mem__0992_ net430 VPWR u_ppwm_u_mem__0992_/Y VGND net349 hold106/A sg13g2_o21ai_1
XFILLER_30_979 VPWR VGND sg13g2_decap_8
Xu_ppwm_u_pwm__234_ net195 VGND VPWR net265 hold67/A clknet_5_5__leaf_clk sg13g2_dfrbpq_1
Xu_ppwm_u_pwm__165_ u_ppwm_u_pwm__165_/A u_ppwm_u_pwm__165_/B u_ppwm_u_pwm__236_/D
+ VPWR VGND sg13g2_nor2_1
XFILLER_6_685 VPWR VGND sg13g2_decap_8
XFILLER_2_891 VPWR VGND sg13g2_decap_8
XFILLER_49_350 VPWR VGND sg13g2_decap_8
XFILLER_37_589 VPWR VGND sg13g2_decap_8
XFILLER_21_913 VPWR VGND sg13g2_decap_8
Xclkbuf_4_12_0_clk clknet_0_clk clknet_4_12_0_clk VPWR VGND sg13g2_buf_8
XFILLER_20_489 VPWR VGND sg13g2_decap_8
Xu_ppwm_u_mem__1121__119 VPWR VGND net119 sg13g2_tiehi
XFILLER_0_806 VPWR VGND sg13g2_decap_8
Xheichips25_ppwm_11 VPWR VGND uio_out[0] sg13g2_tielo
Xheichips25_ppwm_22 VPWR VGND uo_out[4] sg13g2_tielo
XFILLER_16_707 VPWR VGND sg13g2_decap_8
XFILLER_28_578 VPWR VGND sg13g2_decap_8
XFILLER_43_537 VPWR VGND sg13g2_decap_8
XFILLER_24_762 VPWR VGND sg13g2_decap_8
XFILLER_8_917 VPWR VGND sg13g2_decap_8
XFILLER_7_405 VPWR VGND sg13g2_decap_8
XFILLER_11_456 VPWR VGND sg13g2_decap_8
XFILLER_12_957 VPWR VGND sg13g2_decap_8
XFILLER_3_600 VPWR VGND sg13g2_decap_8
XFILLER_48_1019 VPWR VGND sg13g2_decap_8
XFILLER_2_121 VPWR VGND sg13g2_decap_4
XFILLER_3_677 VPWR VGND sg13g2_decap_8
XFILLER_2_154 VPWR VGND sg13g2_fill_2
XFILLER_19_523 VPWR VGND sg13g2_decap_8
XFILLER_47_843 VPWR VGND sg13g2_decap_8
XFILLER_0_35 VPWR VGND sg13g2_decap_8
Xu_ppwm_u_mem__1191_ net169 VGND VPWR net486 hold231/A clknet_5_12__leaf_clk sg13g2_dfrbpq_1
XFILLER_34_537 VPWR VGND sg13g2_decap_8
XFILLER_9_11 VPWR VGND sg13g2_decap_8
XFILLER_9_22 VPWR VGND sg13g2_fill_1
XFILLER_15_795 VPWR VGND sg13g2_decap_8
XFILLER_9_66 VPWR VGND sg13g2_decap_4
XFILLER_14_294 VPWR VGND sg13g2_fill_1
XFILLER_30_776 VPWR VGND sg13g2_decap_8
XFILLER_31_1012 VPWR VGND sg13g2_decap_8
Xu_ppwm_u_mem__0975_ VGND VPWR net350 u_ppwm_u_mem__0667_/Y u_ppwm_u_mem__1164_/D
+ u_ppwm_u_mem__0974_/Y sg13g2_a21oi_1
Xu_ppwm_u_pwm__217_ VPWR VGND u_ppwm_u_pwm__203_/X u_ppwm_u_pwm__216_/X u_ppwm_u_pwm__215_/Y
+ u_ppwm_u_pwm__211_/Y u_ppwm_u_pwm__217_/Y u_ppwm_u_pwm__215_/C sg13g2_a221oi_1
XFILLER_7_972 VPWR VGND sg13g2_decap_8
Xu_ppwm_u_pwm__148_ VGND VPWR u_ppwm_u_pwm__136_/Y net328 hold220/A u_ppwm_u_pwm__147_/Y
+ sg13g2_a21oi_1
XFILLER_6_482 VPWR VGND sg13g2_decap_8
XFILLER_38_865 VPWR VGND sg13g2_decap_8
Xu_ppwm_u_global_counter__097_ VGND VPWR u_ppwm_u_global_counter__056_/Y u_ppwm_u_global_counter__093_/Y
+ hold235/A u_ppwm_u_global_counter__099_/B sg13g2_a21oi_1
XFILLER_25_548 VPWR VGND sg13g2_decap_8
XFILLER_37_397 VPWR VGND sg13g2_fill_1
XFILLER_21_710 VPWR VGND sg13g2_decap_8
XFILLER_20_220 VPWR VGND sg13g2_fill_1
XFILLER_21_787 VPWR VGND sg13g2_decap_8
XFILLER_4_419 VPWR VGND sg13g2_decap_8
XFILLER_0_603 VPWR VGND sg13g2_decap_8
XFILLER_18_20 VPWR VGND sg13g2_decap_4
XFILLER_29_843 VPWR VGND sg13g2_decap_8
XFILLER_44_802 VPWR VGND sg13g2_decap_8
XFILLER_16_504 VPWR VGND sg13g2_decap_8
XFILLER_44_879 VPWR VGND sg13g2_decap_8
XFILLER_12_754 VPWR VGND sg13g2_decap_8
XFILLER_34_85 VPWR VGND sg13g2_decap_4
XFILLER_8_714 VPWR VGND sg13g2_decap_8
XFILLER_11_286 VPWR VGND sg13g2_fill_1
Xu_ppwm_u_mem__0760_ u_ppwm_u_mem__0760_/Y net334 u_ppwm_u_mem__0760_/B VPWR VGND
+ sg13g2_nand2_1
Xu_ppwm_u_mem__0691_ VPWR u_ppwm_u_mem__0691_/Y net606 VGND sg13g2_inv_1
XFILLER_4_986 VPWR VGND sg13g2_decap_8
XFILLER_3_474 VPWR VGND sg13g2_decap_8
XFILLER_39_618 VPWR VGND sg13g2_decap_8
XFILLER_47_640 VPWR VGND sg13g2_decap_8
Xu_ppwm_u_mem__1174_ net118 VGND VPWR net209 hold46/A clknet_5_11__leaf_clk sg13g2_dfrbpq_1
Xu_ppwm_u_ex__660_ net319 VPWR u_ppwm_u_ex__660_/Y VGND net394 net396 sg13g2_o21ai_1
XFILLER_35_813 VPWR VGND sg13g2_decap_8
Xu_ppwm_u_ex__591_ u_ppwm_u_ex__591_/A u_ppwm_u_ex__593_/B u_ppwm_u_ex__591_/C u_ppwm_u_ex__591_/D
+ u_ppwm_u_ex__591_/X VPWR VGND sg13g2_and4_1
XFILLER_15_592 VPWR VGND sg13g2_decap_8
XFILLER_30_573 VPWR VGND sg13g2_decap_8
Xu_ppwm_u_mem__0958_ net449 VPWR u_ppwm_u_mem__0958_/Y VGND net368 hold172/A sg13g2_o21ai_1
Xu_ppwm_u_mem__0889_ VGND VPWR net360 u_ppwm_u_mem__0710_/Y hold247/A u_ppwm_u_mem__0888_/Y
+ sg13g2_a21oi_1
Xu_ppwm_u_mem__1204__88 VPWR VGND net88 sg13g2_tiehi
XFILLER_38_662 VPWR VGND sg13g2_decap_8
XFILLER_26_846 VPWR VGND sg13g2_decap_8
Xu_ppwm_u_ex__789_ u_ppwm_u_ex__789_/Y net379 net322 VPWR VGND sg13g2_nand2_1
XFILLER_13_518 VPWR VGND sg13g2_decap_8
XFILLER_21_584 VPWR VGND sg13g2_decap_8
XFILLER_5_717 VPWR VGND sg13g2_decap_8
XFILLER_20_65 VPWR VGND sg13g2_fill_1
XFILLER_0_400 VPWR VGND sg13g2_decap_8
XFILLER_1_967 VPWR VGND sg13g2_decap_8
XFILLER_49_938 VPWR VGND sg13g2_decap_8
Xhold41 hold41/A VPWR VGND net238 sg13g2_dlygate4sd3_1
Xhold30 hold30/A VPWR VGND net227 sg13g2_dlygate4sd3_1
XFILLER_0_477 VPWR VGND sg13g2_decap_8
XFILLER_48_459 VPWR VGND sg13g2_decap_8
Xhold63 hold63/A VPWR VGND net260 sg13g2_dlygate4sd3_1
Xhold74 hold74/A VPWR VGND net271 sg13g2_dlygate4sd3_1
Xhold52 hold52/A VPWR VGND net249 sg13g2_dlygate4sd3_1
XFILLER_21_1011 VPWR VGND sg13g2_decap_8
XFILLER_29_85 VPWR VGND sg13g2_decap_4
XFILLER_29_640 VPWR VGND sg13g2_decap_8
Xhold85 hold85/A VPWR VGND net282 sg13g2_dlygate4sd3_1
XFILLER_17_802 VPWR VGND sg13g2_decap_8
Xhold96 hold96/A VPWR VGND net293 sg13g2_dlygate4sd3_1
XFILLER_44_676 VPWR VGND sg13g2_decap_8
XFILLER_16_334 VPWR VGND sg13g2_fill_1
XFILLER_17_879 VPWR VGND sg13g2_decap_8
XFILLER_45_84 VPWR VGND sg13g2_fill_1
XFILLER_43_186 VPWR VGND sg13g2_fill_1
XFILLER_31_326 VPWR VGND sg13g2_decap_8
XFILLER_8_511 VPWR VGND sg13g2_decap_8
XFILLER_12_551 VPWR VGND sg13g2_decap_8
XFILLER_8_588 VPWR VGND sg13g2_decap_8
XFILLER_6_34 VPWR VGND sg13g2_fill_1
Xu_ppwm_u_mem__0812_ hold61/A hold98/A net412 u_ppwm_u_mem__0812_/X VPWR VGND sg13g2_mux2_1
XFILLER_6_56 VPWR VGND sg13g2_fill_1
Xu_ppwm_u_mem__0743_ u_ppwm_u_mem__0743_/Y net334 u_ppwm_u_mem__0743_/B VPWR VGND
+ sg13g2_nand2_1
Xu_ppwm_u_mem__0674_ VPWR u_ppwm_u_mem__0674_/Y net237 VGND sg13g2_inv_1
XFILLER_4_783 VPWR VGND sg13g2_decap_8
XFILLER_20_4 VPWR VGND sg13g2_decap_4
Xu_ppwm_u_ex__712_ u_ppwm_u_ex__712_/A u_ppwm_u_ex__712_/B hold309/A VPWR VGND sg13g2_nor2_1
Xu_ppwm_u_mem__1226_ net175 VGND VPWR net514 hold170/A clknet_5_3__leaf_clk sg13g2_dfrbpq_1
XFILLER_35_610 VPWR VGND sg13g2_decap_8
Xu_ppwm_u_mem__1157_ net166 VGND VPWR net238 hold63/A clknet_5_30__leaf_clk sg13g2_dfrbpq_1
Xu_ppwm_u_ex__643_ u_ppwm_u_ex__644_/B net396 net319 VPWR VGND sg13g2_xnor2_1
XFILLER_23_805 VPWR VGND sg13g2_decap_8
Xu_ppwm_u_ex__574_ u_ppwm_u_ex__574_/Y hold209/A u_ppwm_u_ex__424_/Y hold234/A u_ppwm_u_ex__583_/A
+ VPWR VGND sg13g2_a22oi_1
Xu_ppwm_u_mem__1088_ u_ppwm_u_mem__1103_/A u_ppwm_u_mem__1088_/B u_ppwm_u_mem__1090_/B
+ u_ppwm_u_mem__1219_/D VPWR VGND sg13g2_nor3_1
XFILLER_35_687 VPWR VGND sg13g2_decap_8
XFILLER_31_893 VPWR VGND sg13g2_decap_8
XFILLER_2_709 VPWR VGND sg13g2_decap_8
XFILLER_39_982 VPWR VGND sg13g2_decap_8
XFILLER_25_142 VPWR VGND sg13g2_decap_4
XFILLER_26_643 VPWR VGND sg13g2_decap_8
XFILLER_13_315 VPWR VGND sg13g2_fill_2
XFILLER_14_849 VPWR VGND sg13g2_decap_8
XFILLER_13_326 VPWR VGND sg13g2_decap_4
XFILLER_41_668 VPWR VGND sg13g2_decap_8
XFILLER_5_514 VPWR VGND sg13g2_decap_8
XFILLER_1_764 VPWR VGND sg13g2_decap_8
XFILLER_49_735 VPWR VGND sg13g2_decap_8
XFILLER_0_274 VPWR VGND sg13g2_decap_8
XFILLER_48_245 VPWR VGND sg13g2_decap_8
XFILLER_45_941 VPWR VGND sg13g2_decap_8
Xu_ppwm_u_mem__1011_ VGND VPWR net346 u_ppwm_u_mem__0649_/Y u_ppwm_u_mem__1182_/D
+ u_ppwm_u_mem__1010_/Y sg13g2_a21oi_1
XFILLER_44_473 VPWR VGND sg13g2_decap_8
XFILLER_16_175 VPWR VGND sg13g2_fill_2
XFILLER_17_676 VPWR VGND sg13g2_decap_8
XFILLER_31_145 VPWR VGND sg13g2_fill_2
XFILLER_32_668 VPWR VGND sg13g2_decap_8
XFILLER_13_882 VPWR VGND sg13g2_decap_8
XFILLER_8_341 VPWR VGND sg13g2_fill_2
XFILLER_9_864 VPWR VGND sg13g2_decap_8
Xclkbuf_5_17__f_clk clknet_4_8_0_clk clknet_5_17__leaf_clk VPWR VGND sg13g2_buf_8
Xu_ppwm_u_mem__0726_ VPWR u_ppwm_u_mem__0726_/Y net513 VGND sg13g2_inv_1
XFILLER_4_580 VPWR VGND sg13g2_decap_8
Xfanout309 fanout309/A net309 VPWR VGND sg13g2_buf_8
XFILLER_28_1028 VPWR VGND sg13g2_fill_1
Xu_ppwm_u_mem__0657_ VPWR u_ppwm_u_mem__0657_/Y net208 VGND sg13g2_inv_1
XFILLER_39_256 VPWR VGND sg13g2_fill_2
XFILLER_36_930 VPWR VGND sg13g2_decap_8
Xu_ppwm_u_mem__1209_ net167 VGND VPWR u_ppwm_u_mem__1209_/D hold128/A clknet_5_13__leaf_clk
+ sg13g2_dfrbpq_2
XFILLER_23_602 VPWR VGND sg13g2_decap_8
Xu_ppwm_u_ex__626_ fanout315/A u_ppwm_u_ex__637_/A VPWR VGND net317 sg13g2_nand2b_2
Xu_ppwm_u_ex__557_ hold185/A net393 u_ppwm_u_ex__558_/C VPWR VGND sg13g2_xor2_1
XFILLER_22_156 VPWR VGND sg13g2_fill_2
XFILLER_23_679 VPWR VGND sg13g2_decap_8
Xu_ppwm_u_ex__488_ u_ppwm_u_ex__488_/Y u_ppwm_u_ex__488_/A u_ppwm_u_ex__488_/B VPWR
+ VGND sg13g2_nand2_1
XFILLER_31_690 VPWR VGND sg13g2_decap_8
XFILLER_2_506 VPWR VGND sg13g2_decap_8
Xhold330 hold330/A VPWR VGND net673 sg13g2_dlygate4sd3_1
XFILLER_19_908 VPWR VGND sg13g2_decap_8
XFILLER_46_749 VPWR VGND sg13g2_decap_8
XFILLER_18_429 VPWR VGND sg13g2_decap_8
XFILLER_27_952 VPWR VGND sg13g2_decap_8
XFILLER_42_944 VPWR VGND sg13g2_decap_8
XFILLER_14_646 VPWR VGND sg13g2_decap_8
XFILLER_13_145 VPWR VGND sg13g2_fill_1
XFILLER_10_830 VPWR VGND sg13g2_decap_8
Xu_ppwm_u_pwm__181_ u_ppwm_u_pwm__242_/D net422 u_ppwm_u_pwm__181_/B u_ppwm_u_pwm__181_/C
+ VPWR VGND sg13g2_and3_1
XFILLER_6_867 VPWR VGND sg13g2_decap_8
XFILLER_5_388 VPWR VGND sg13g2_decap_8
XFILLER_3_46 VPWR VGND sg13g2_decap_4
XFILLER_1_561 VPWR VGND sg13g2_decap_8
XFILLER_49_532 VPWR VGND sg13g2_decap_8
XFILLER_36_215 VPWR VGND sg13g2_decap_8
XFILLER_17_473 VPWR VGND sg13g2_decap_8
XFILLER_18_996 VPWR VGND sg13g2_decap_8
XFILLER_33_911 VPWR VGND sg13g2_decap_8
XFILLER_32_454 VPWR VGND sg13g2_fill_1
XFILLER_33_988 VPWR VGND sg13g2_decap_8
XFILLER_9_661 VPWR VGND sg13g2_decap_8
Xu_ppwm_u_mem__0709_ VPWR u_ppwm_u_mem__0709_/Y net591 VGND sg13g2_inv_1
XFILLER_41_1025 VPWR VGND sg13g2_decap_4
XFILLER_43_719 VPWR VGND sg13g2_decap_8
XFILLER_42_218 VPWR VGND sg13g2_decap_8
XFILLER_24_944 VPWR VGND sg13g2_decap_8
Xu_ppwm_u_ex__609_ VPWR VGND u_ppwm_u_ex__608_/Y u_ppwm_u_ex__595_/Y u_ppwm_u_ex__607_/Y
+ u_ppwm_u_ex__519_/A u_ppwm_u_ex__609_/Y hold118/A sg13g2_a221oi_1
XFILLER_11_638 VPWR VGND sg13g2_decap_8
XFILLER_23_476 VPWR VGND sg13g2_decap_8
XFILLER_6_108 VPWR VGND sg13g2_fill_1
XFILLER_12_11 VPWR VGND sg13g2_decap_8
XFILLER_6_119 VPWR VGND sg13g2_fill_1
XFILLER_12_55 VPWR VGND sg13g2_fill_1
XFILLER_3_859 VPWR VGND sg13g2_decap_8
Xhold171 hold171/A VPWR VGND net514 sg13g2_dlygate4sd3_1
Xhold160 hold160/A VPWR VGND net503 sg13g2_dlygate4sd3_1
Xhold193 hold193/A VPWR VGND net536 sg13g2_dlygate4sd3_1
Xhold182 hold182/A VPWR VGND net525 sg13g2_dlygate4sd3_1
XFILLER_19_705 VPWR VGND sg13g2_decap_8
XFILLER_46_546 VPWR VGND sg13g2_decap_8
XFILLER_15_900 VPWR VGND sg13g2_decap_8
XFILLER_34_719 VPWR VGND sg13g2_decap_8
XFILLER_42_741 VPWR VGND sg13g2_decap_8
XFILLER_14_443 VPWR VGND sg13g2_decap_8
XFILLER_15_977 VPWR VGND sg13g2_decap_8
Xu_ppwm_u_mem__0991_ VGND VPWR net349 u_ppwm_u_mem__0659_/Y u_ppwm_u_mem__1172_/D
+ u_ppwm_u_mem__0990_/Y sg13g2_a21oi_1
Xu_ppwm_u_pwm__233_ net197 VGND VPWR net250 hold52/A clknet_5_3__leaf_clk sg13g2_dfrbpq_1
XFILLER_30_958 VPWR VGND sg13g2_decap_8
Xu_ppwm_u_pwm__164_ net422 VPWR u_ppwm_u_pwm__165_/B VGND net625 net630 sg13g2_o21ai_1
XFILLER_6_664 VPWR VGND sg13g2_decap_8
XFILLER_2_870 VPWR VGND sg13g2_decap_8
XFILLER_37_568 VPWR VGND sg13g2_decap_8
XFILLER_18_793 VPWR VGND sg13g2_decap_8
XFILLER_33_785 VPWR VGND sg13g2_decap_8
XFILLER_21_969 VPWR VGND sg13g2_decap_8
XFILLER_20_468 VPWR VGND sg13g2_decap_8
Xheichips25_ppwm_23 VPWR VGND uo_out[5] sg13g2_tielo
Xheichips25_ppwm_12 VPWR VGND uio_out[1] sg13g2_tielo
XFILLER_28_557 VPWR VGND sg13g2_decap_8
XFILLER_43_516 VPWR VGND sg13g2_decap_8
XFILLER_15_207 VPWR VGND sg13g2_fill_1
XFILLER_24_741 VPWR VGND sg13g2_decap_8
XFILLER_12_936 VPWR VGND sg13g2_decap_8
XFILLER_11_435 VPWR VGND sg13g2_decap_8
XFILLER_3_656 VPWR VGND sg13g2_decap_8
Xu_ppwm_u_mem__1176__110 VPWR VGND net110 sg13g2_tiehi
XFILLER_2_177 VPWR VGND sg13g2_decap_4
XFILLER_47_822 VPWR VGND sg13g2_decap_8
XFILLER_48_84 VPWR VGND sg13g2_decap_8
XFILLER_19_502 VPWR VGND sg13g2_decap_8
XFILLER_0_14 VPWR VGND sg13g2_decap_8
Xu_ppwm_u_mem__1190_ net54 VGND VPWR u_ppwm_u_mem__1190_/D hold173/A clknet_5_10__leaf_clk
+ sg13g2_dfrbpq_1
XFILLER_47_899 VPWR VGND sg13g2_decap_8
XFILLER_19_579 VPWR VGND sg13g2_decap_8
XFILLER_15_774 VPWR VGND sg13g2_decap_8
XFILLER_30_755 VPWR VGND sg13g2_decap_8
Xu_ppwm_u_mem__0974_ net434 VPWR u_ppwm_u_mem__0974_/Y VGND net355 net214 sg13g2_o21ai_1
Xu_ppwm_u_pwm__216_ u_ppwm_u_pwm__216_/A u_ppwm_u_pwm__216_/B u_ppwm_u_pwm__216_/X
+ VPWR VGND sg13g2_and2_1
XFILLER_7_951 VPWR VGND sg13g2_decap_8
XFILLER_6_461 VPWR VGND sg13g2_decap_8
Xu_ppwm_u_pwm__147_ net425 VPWR u_ppwm_u_pwm__147_/Y VGND net396 net329 sg13g2_o21ai_1
XFILLER_9_1025 VPWR VGND sg13g2_decap_4
XFILLER_38_844 VPWR VGND sg13g2_decap_8
Xu_ppwm_u_global_counter__096_ net331 u_ppwm_u_global_counter__103_/C u_ppwm_u_global_counter__099_/B
+ VPWR VGND sg13g2_and2_1
XFILLER_25_527 VPWR VGND sg13g2_decap_8
XFILLER_18_590 VPWR VGND sg13g2_decap_8
XFILLER_33_582 VPWR VGND sg13g2_decap_8
XFILLER_20_254 VPWR VGND sg13g2_decap_8
XFILLER_20_265 VPWR VGND sg13g2_fill_1
XFILLER_21_766 VPWR VGND sg13g2_decap_8
Xu_ppwm_u_pwm__231__179 VPWR VGND net179 sg13g2_tiehi
Xu_ppwm_u_mem__1207__64 VPWR VGND net64 sg13g2_tiehi
XFILLER_0_659 VPWR VGND sg13g2_decap_8
XFILLER_29_822 VPWR VGND sg13g2_decap_8
XFILLER_29_899 VPWR VGND sg13g2_decap_8
XFILLER_44_858 VPWR VGND sg13g2_decap_8
XFILLER_12_733 VPWR VGND sg13g2_decap_8
XFILLER_15_1019 VPWR VGND sg13g2_decap_8
XFILLER_11_243 VPWR VGND sg13g2_fill_1
XFILLER_11_254 VPWR VGND sg13g2_fill_2
XFILLER_11_276 VPWR VGND sg13g2_fill_1
Xu_ppwm_u_mem__0690_ VPWR u_ppwm_u_mem__0690_/Y net289 VGND sg13g2_inv_1
XFILLER_4_965 VPWR VGND sg13g2_decap_8
XFILLER_3_453 VPWR VGND sg13g2_decap_8
XFILLER_19_310 VPWR VGND sg13g2_fill_1
XFILLER_19_321 VPWR VGND sg13g2_fill_1
Xu_ppwm_u_mem__1173_ net122 VGND VPWR net244 hold106/A clknet_5_11__leaf_clk sg13g2_dfrbpq_1
Xclkbuf_4_11_0_clk clknet_0_clk clknet_4_11_0_clk VPWR VGND sg13g2_buf_8
XFILLER_47_696 VPWR VGND sg13g2_decap_8
Xu_ppwm_u_ex__590_ u_ppwm_u_ex__591_/D hold333/A hold221/A VPWR VGND sg13g2_nand2b_1
XFILLER_34_313 VPWR VGND sg13g2_fill_2
XFILLER_35_869 VPWR VGND sg13g2_decap_8
XFILLER_43_880 VPWR VGND sg13g2_decap_8
XFILLER_15_571 VPWR VGND sg13g2_decap_8
XFILLER_30_552 VPWR VGND sg13g2_decap_8
Xu_ppwm_u_mem__0957_ VGND VPWR net367 u_ppwm_u_mem__0676_/Y u_ppwm_u_mem__1155_/D
+ u_ppwm_u_mem__0956_/Y sg13g2_a21oi_1
Xu_ppwm_u_mem__0888_ net447 VPWR u_ppwm_u_mem__0888_/Y VGND net360 net506 sg13g2_o21ai_1
XFILLER_41_0 VPWR VGND sg13g2_decap_8
XFILLER_29_107 VPWR VGND sg13g2_fill_2
XFILLER_38_641 VPWR VGND sg13g2_decap_8
XFILLER_26_825 VPWR VGND sg13g2_decap_8
Xu_ppwm_u_global_counter__079_ net657 u_ppwm_u_global_counter__082_/D net291 u_ppwm_u_global_counter__083_/B
+ VPWR VGND sg13g2_nand3_1
Xu_ppwm_u_ex__788_ VGND VPWR u_ppwm_u_ex__753_/B u_ppwm_u_ex__785_/Y u_ppwm_u_ex__788_/Y
+ u_ppwm_u_ex__787_/Y sg13g2_a21oi_1
XFILLER_38_1019 VPWR VGND sg13g2_decap_8
XFILLER_25_379 VPWR VGND sg13g2_decap_8
XFILLER_34_880 VPWR VGND sg13g2_decap_8
XFILLER_21_563 VPWR VGND sg13g2_decap_8
XFILLER_20_44 VPWR VGND sg13g2_fill_1
XFILLER_49_917 VPWR VGND sg13g2_decap_8
XFILLER_1_946 VPWR VGND sg13g2_decap_8
Xhold20 hold20/A VPWR VGND net217 sg13g2_dlygate4sd3_1
Xhold31 hold31/A VPWR VGND net228 sg13g2_dlygate4sd3_1
XFILLER_0_456 VPWR VGND sg13g2_decap_8
XFILLER_48_438 VPWR VGND sg13g2_decap_8
Xhold64 hold64/A VPWR VGND net261 sg13g2_dlygate4sd3_1
Xhold53 hold53/A VPWR VGND net250 sg13g2_dlygate4sd3_1
Xhold42 hold42/A VPWR VGND net239 sg13g2_dlygate4sd3_1
Xhold86 hold86/A VPWR VGND net283 sg13g2_dlygate4sd3_1
Xhold97 hold97/A VPWR VGND net294 sg13g2_dlygate4sd3_1
Xhold75 hold75/A VPWR VGND net272 sg13g2_dlygate4sd3_1
XFILLER_29_696 VPWR VGND sg13g2_decap_8
XFILLER_44_655 VPWR VGND sg13g2_decap_8
XFILLER_17_858 VPWR VGND sg13g2_decap_8
Xu_ppwm_u_mem__1131__99 VPWR VGND net99 sg13g2_tiehi
XFILLER_12_530 VPWR VGND sg13g2_decap_8
XFILLER_25_891 VPWR VGND sg13g2_decap_8
Xu_ppwm_u_mem__1110__141 VPWR VGND net141 sg13g2_tiehi
XFILLER_8_567 VPWR VGND sg13g2_decap_8
Xu_ppwm_u_mem__0811_ net412 u_ppwm_u_mem__0616_/Y u_ppwm_u_mem__0810_/Y u_ppwm_u_mem__0811_/X
+ VPWR VGND sg13g2_a21o_1
Xu_ppwm_u_mem__0742_ hold85/A hold144/A net413 u_ppwm_u_mem__0743_/B VPWR VGND sg13g2_mux2_1
XFILLER_4_762 VPWR VGND sg13g2_decap_8
Xu_ppwm_u_mem__0673_ VPWR u_ppwm_u_mem__0673_/Y net306 VGND sg13g2_inv_1
XFILLER_6_1028 VPWR VGND sg13g2_fill_1
XFILLER_13_4 VPWR VGND sg13g2_decap_8
Xu_ppwm_u_mem__1225_ net174 VGND VPWR net551 hold206/A clknet_5_2__leaf_clk sg13g2_dfrbpq_1
Xu_ppwm_u_ex__711_ net426 VPWR u_ppwm_u_ex__712_/B VGND net651 net310 sg13g2_o21ai_1
XFILLER_19_173 VPWR VGND sg13g2_decap_8
XFILLER_47_493 VPWR VGND sg13g2_decap_8
Xu_ppwm_u_mem__1156_ net168 VGND VPWR net261 hold172/A clknet_5_30__leaf_clk sg13g2_dfrbpq_2
Xu_ppwm_u_ex__642_ VGND VPWR u_ppwm_u_ex__636_/A u_ppwm_u_ex__636_/B u_ppwm_u_ex__644_/A
+ u_ppwm_u_ex__634_/X sg13g2_a21oi_1
XFILLER_35_666 VPWR VGND sg13g2_decap_8
Xu_ppwm_u_ex__573_ u_ppwm_u_ex__594_/B u_ppwm_u_ex__573_/C u_ppwm_u_ex__573_/A u_ppwm_u_ex__617_/B
+ VPWR VGND sg13g2_nand3_1
Xu_ppwm_u_mem__1087_ net618 net338 u_ppwm_u_mem__1090_/B VPWR VGND sg13g2_and2_1
XFILLER_31_872 VPWR VGND sg13g2_decap_8
XFILLER_44_1012 VPWR VGND sg13g2_decap_8
XFILLER_45_408 VPWR VGND sg13g2_fill_2
XFILLER_39_961 VPWR VGND sg13g2_decap_8
XFILLER_26_622 VPWR VGND sg13g2_decap_8
XFILLER_38_493 VPWR VGND sg13g2_fill_2
XFILLER_14_828 VPWR VGND sg13g2_decap_8
XFILLER_15_11 VPWR VGND sg13g2_decap_8
XFILLER_26_699 VPWR VGND sg13g2_decap_8
XFILLER_41_647 VPWR VGND sg13g2_decap_8
XFILLER_22_894 VPWR VGND sg13g2_decap_8
XFILLER_31_32 VPWR VGND sg13g2_decap_4
XFILLER_1_743 VPWR VGND sg13g2_decap_8
XFILLER_49_714 VPWR VGND sg13g2_decap_8
XFILLER_48_224 VPWR VGND sg13g2_decap_8
XFILLER_45_920 VPWR VGND sg13g2_decap_8
XFILLER_17_655 VPWR VGND sg13g2_decap_8
XFILLER_29_493 VPWR VGND sg13g2_decap_8
Xu_ppwm_u_mem__1010_ net430 VPWR u_ppwm_u_mem__1010_/Y VGND net346 net524 sg13g2_o21ai_1
XFILLER_45_997 VPWR VGND sg13g2_decap_8
XFILLER_16_165 VPWR VGND sg13g2_decap_4
XFILLER_32_647 VPWR VGND sg13g2_decap_8
XFILLER_13_861 VPWR VGND sg13g2_decap_8
XFILLER_9_843 VPWR VGND sg13g2_decap_8
Xu_ppwm_u_mem__0725_ u_ppwm_u_mem__1094_/A net423 VPWR VGND sg13g2_inv_2
Xu_ppwm_u_mem__0656_ VPWR u_ppwm_u_mem__0656_/Y net620 VGND sg13g2_inv_1
Xu_ppwm_u_mem__1208_ net56 VGND VPWR net472 hold236/A clknet_5_9__leaf_clk sg13g2_dfrbpq_1
Xu_ppwm_u_mem__1139_ net83 VGND VPWR net273 hold19/A clknet_5_26__leaf_clk sg13g2_dfrbpq_1
Xheichips25_ppwm_3 VPWR VGND uio_oe[0] sg13g2_tielo
Xu_ppwm_u_ex__625_ u_ppwm/instr\[0\] net317 fanout316/A VPWR VGND sg13g2_nor2_2
XFILLER_36_986 VPWR VGND sg13g2_decap_8
XFILLER_22_113 VPWR VGND sg13g2_fill_2
Xu_ppwm_u_ex__556_ hold203/A net395 u_ppwm_u_ex__558_/B VPWR VGND sg13g2_nor2b_1
XFILLER_23_658 VPWR VGND sg13g2_decap_8
Xu_ppwm_u_ex__487_ net400 u_ppwm_u_ex__442_/Y u_ppwm_u_ex__487_/Y VPWR VGND sg13g2_nor2b_1
Xhold320 hold320/A VPWR VGND net663 sg13g2_dlygate4sd3_1
Xhold331 hold331/A VPWR VGND net674 sg13g2_dlygate4sd3_1
XFILLER_46_728 VPWR VGND sg13g2_decap_8
XFILLER_45_216 VPWR VGND sg13g2_fill_2
Xclkbuf_5_23__f_clk clknet_4_11_0_clk clknet_5_23__leaf_clk VPWR VGND sg13g2_buf_8
XFILLER_27_931 VPWR VGND sg13g2_decap_8
XFILLER_42_923 VPWR VGND sg13g2_decap_8
XFILLER_14_625 VPWR VGND sg13g2_decap_8
XFILLER_26_98 VPWR VGND sg13g2_fill_2
XFILLER_26_496 VPWR VGND sg13g2_decap_8
Xu_ppwm_u_pwm__180_ u_ppwm_u_pwm__181_/C net626 u_ppwm_u_pwm__182_/C VPWR VGND sg13g2_nand2_1
XFILLER_22_691 VPWR VGND sg13g2_decap_8
XFILLER_6_846 VPWR VGND sg13g2_decap_8
XFILLER_10_886 VPWR VGND sg13g2_decap_8
XFILLER_5_367 VPWR VGND sg13g2_decap_8
XFILLER_3_25 VPWR VGND sg13g2_decap_8
XFILLER_1_540 VPWR VGND sg13g2_decap_8
XFILLER_49_511 VPWR VGND sg13g2_decap_8
XFILLER_49_588 VPWR VGND sg13g2_decap_8
XFILLER_17_452 VPWR VGND sg13g2_decap_8
XFILLER_18_975 VPWR VGND sg13g2_decap_8
XFILLER_45_794 VPWR VGND sg13g2_decap_8
XFILLER_32_422 VPWR VGND sg13g2_fill_1
XFILLER_32_433 VPWR VGND sg13g2_fill_1
XFILLER_33_967 VPWR VGND sg13g2_decap_8
Xu_ppwm_u_ex__814__47 VPWR VGND net47 sg13g2_tiehi
XFILLER_9_640 VPWR VGND sg13g2_decap_8
Xu_ppwm_u_mem__0708_ VPWR u_ppwm_u_mem__0708_/Y net483 VGND sg13g2_inv_1
Xu_ppwm_u_mem__0639_ VPWR u_ppwm_u_mem__0639_/Y net231 VGND sg13g2_inv_1
XFILLER_41_1004 VPWR VGND sg13g2_decap_8
XFILLER_28_739 VPWR VGND sg13g2_decap_8
XFILLER_24_923 VPWR VGND sg13g2_decap_8
XFILLER_36_783 VPWR VGND sg13g2_decap_8
Xu_ppwm_u_ex__608_ u_ppwm_u_ex__608_/Y net380 u_ppwm_u_ex__608_/B VPWR VGND sg13g2_nand2_1
XFILLER_23_455 VPWR VGND sg13g2_decap_8
XFILLER_11_617 VPWR VGND sg13g2_decap_8
Xu_ppwm_u_ex__539_ u_ppwm_u_ex__543_/B net378 hold308/A VPWR VGND sg13g2_xnor2_1
XFILLER_3_838 VPWR VGND sg13g2_decap_8
Xhold150 hold150/A VPWR VGND net493 sg13g2_dlygate4sd3_1
Xhold161 hold161/A VPWR VGND net504 sg13g2_dlygate4sd3_1
Xhold172 hold172/A VPWR VGND net515 sg13g2_dlygate4sd3_1
XFILLER_2_359 VPWR VGND sg13g2_decap_8
Xhold194 hold194/A VPWR VGND net537 sg13g2_dlygate4sd3_1
Xhold183 hold183/A VPWR VGND net526 sg13g2_dlygate4sd3_1
XFILLER_46_525 VPWR VGND sg13g2_decap_8
XFILLER_37_20 VPWR VGND sg13g2_fill_2
XFILLER_42_720 VPWR VGND sg13g2_decap_8
XFILLER_14_422 VPWR VGND sg13g2_decap_8
XFILLER_41_230 VPWR VGND sg13g2_decap_8
XFILLER_15_956 VPWR VGND sg13g2_decap_8
XFILLER_18_1017 VPWR VGND sg13g2_decap_8
XFILLER_18_1028 VPWR VGND sg13g2_fill_1
XFILLER_26_293 VPWR VGND sg13g2_fill_2
XFILLER_42_797 VPWR VGND sg13g2_decap_8
XFILLER_14_499 VPWR VGND sg13g2_decap_8
XFILLER_30_937 VPWR VGND sg13g2_decap_8
Xu_ppwm_u_mem__0990_ net431 VPWR u_ppwm_u_mem__0990_/Y VGND net351 net270 sg13g2_o21ai_1
Xu_ppwm_u_pwm__232_ net177 VGND VPWR net221 hold23/A clknet_5_1__leaf_clk sg13g2_dfrbpq_1
Xu_ppwm_u_ex__811__28 VPWR VGND net28 sg13g2_tiehi
Xu_ppwm_u_pwm__163_ net625 net630 u_ppwm_u_pwm__165_/A VPWR VGND sg13g2_and2_1
XFILLER_6_643 VPWR VGND sg13g2_decap_8
XFILLER_10_683 VPWR VGND sg13g2_decap_8
XFILLER_45_7 VPWR VGND sg13g2_decap_8
XFILLER_49_385 VPWR VGND sg13g2_decap_8
XFILLER_37_547 VPWR VGND sg13g2_decap_8
XFILLER_18_772 VPWR VGND sg13g2_decap_8
XFILLER_25_709 VPWR VGND sg13g2_decap_8