* NGSPICE file created from heichips25_ppwm.ext - technology: ihp-sg13g2

* Black-box entry subcircuit for sg13g2_decap_8 abstract view
.subckt sg13g2_decap_8 VDD VSS
.ends

* Black-box entry subcircuit for sg13g2_fill_1 abstract view
.subckt sg13g2_fill_1 VDD VSS
.ends

* Black-box entry subcircuit for sg13g2_fill_2 abstract view
.subckt sg13g2_fill_2 VDD VSS
.ends

* Black-box entry subcircuit for sg13g2_nor2_1 abstract view
.subckt sg13g2_nor2_1 A B Y VDD VSS
.ends

* Black-box entry subcircuit for sg13g2_decap_4 abstract view
.subckt sg13g2_decap_4 VDD VSS
.ends

* Black-box entry subcircuit for sg13g2_dlygate4sd3_1 abstract view
.subckt sg13g2_dlygate4sd3_1 A VDD VSS X
.ends

* Black-box entry subcircuit for sg13g2_o21ai_1 abstract view
.subckt sg13g2_o21ai_1 B1 VDD Y VSS A1 A2
.ends

* Black-box entry subcircuit for sg13g2_and2_1 abstract view
.subckt sg13g2_and2_1 A B X VDD VSS
.ends

* Black-box entry subcircuit for sg13g2_dfrbpq_1 abstract view
.subckt sg13g2_dfrbpq_1 RESET_B VSS VDD D Q CLK
.ends

* Black-box entry subcircuit for sg13g2_a21oi_1 abstract view
.subckt sg13g2_a21oi_1 VSS VDD A1 A2 Y B1
.ends

* Black-box entry subcircuit for sg13g2_buf_8 abstract view
.subckt sg13g2_buf_8 A X VDD VSS
.ends

* Black-box entry subcircuit for sg13g2_tielo abstract view
.subckt sg13g2_tielo VDD VSS L_LO
.ends

* Black-box entry subcircuit for sg13g2_buf_1 abstract view
.subckt sg13g2_buf_1 A X VDD VSS
.ends

* Black-box entry subcircuit for sg13g2_tiehi abstract view
.subckt sg13g2_tiehi VDD VSS L_HI
.ends

* Black-box entry subcircuit for sg13g2_a221oi_1 abstract view
.subckt sg13g2_a221oi_1 VDD VSS B2 C1 B1 A1 Y A2
.ends

* Black-box entry subcircuit for sg13g2_nor2b_1 abstract view
.subckt sg13g2_nor2b_1 A B_N Y VDD VSS
.ends

* Black-box entry subcircuit for sg13g2_nand2_1 abstract view
.subckt sg13g2_nand2_1 Y A B VDD VSS
.ends

* Black-box entry subcircuit for sg13g2_inv_1 abstract view
.subckt sg13g2_inv_1 VDD Y A VSS
.ends

* Black-box entry subcircuit for sg13g2_dfrbpq_2 abstract view
.subckt sg13g2_dfrbpq_2 RESET_B VSS VDD D Q CLK
.ends

* Black-box entry subcircuit for sg13g2_mux2_1 abstract view
.subckt sg13g2_mux2_1 A0 A1 S X VDD VSS
.ends

* Black-box entry subcircuit for sg13g2_nand2b_1 abstract view
.subckt sg13g2_nand2b_1 Y B A_N VDD VSS
.ends

* Black-box entry subcircuit for sg13g2_nor3_1 abstract view
.subckt sg13g2_nor3_1 A B C Y VDD VSS
.ends

* Black-box entry subcircuit for sg13g2_xor2_1 abstract view
.subckt sg13g2_xor2_1 B A X VDD VSS
.ends

* Black-box entry subcircuit for sg13g2_xnor2_1 abstract view
.subckt sg13g2_xnor2_1 Y A B VDD VSS
.ends

* Black-box entry subcircuit for sg13g2_nand3_1 abstract view
.subckt sg13g2_nand3_1 B C A Y VDD VSS
.ends

* Black-box entry subcircuit for sg13g2_a21o_1 abstract view
.subckt sg13g2_a21o_1 A2 A1 B1 X VDD VSS
.ends

* Black-box entry subcircuit for sg13g2_inv_2 abstract view
.subckt sg13g2_inv_2 Y A VDD VSS
.ends

* Black-box entry subcircuit for sg13g2_a22oi_1 abstract view
.subckt sg13g2_a22oi_1 Y B1 B2 A2 A1 VDD VSS
.ends

* Black-box entry subcircuit for sg13g2_nor4_1 abstract view
.subckt sg13g2_nor4_1 A B C D Y VDD VSS
.ends

* Black-box entry subcircuit for sg13g2_and3_2 abstract view
.subckt sg13g2_and3_2 X A B C VDD VSS
.ends

* Black-box entry subcircuit for sg13g2_nand4_1 abstract view
.subckt sg13g2_nand4_1 B C A Y VDD VSS D
.ends

* Black-box entry subcircuit for sg13g2_nand2_2 abstract view
.subckt sg13g2_nand2_2 Y A B VDD VSS
.ends

* Black-box entry subcircuit for sg13g2_nor2_2 abstract view
.subckt sg13g2_nor2_2 A B Y VDD VSS
.ends

* Black-box entry subcircuit for sg13g2_nand2b_2 abstract view
.subckt sg13g2_nand2b_2 Y B VDD VSS A_N
.ends

* Black-box entry subcircuit for sg13g2_nor3_2 abstract view
.subckt sg13g2_nor3_2 A B C Y VDD VSS
.ends

* Black-box entry subcircuit for sg13g2_buf_2 abstract view
.subckt sg13g2_buf_2 A X VDD VSS
.ends

* Black-box entry subcircuit for sg13g2_inv_4 abstract view
.subckt sg13g2_inv_4 A Y VDD VSS
.ends

* Black-box entry subcircuit for sg13g2_or3_1 abstract view
.subckt sg13g2_or3_1 A B C X VDD VSS
.ends

* Black-box entry subcircuit for sg13g2_a21oi_2 abstract view
.subckt sg13g2_a21oi_2 VSS VDD B1 Y A2 A1
.ends

* Black-box entry subcircuit for sg13g2_and3_1 abstract view
.subckt sg13g2_and3_1 X A B C VDD VSS
.ends

* Black-box entry subcircuit for sg13g2_nor2b_2 abstract view
.subckt sg13g2_nor2b_2 A B_N Y VDD VSS
.ends

* Black-box entry subcircuit for sg13g2_a21o_2 abstract view
.subckt sg13g2_a21o_2 A2 A1 B1 X VDD VSS
.ends

* Black-box entry subcircuit for sg13g2_or4_1 abstract view
.subckt sg13g2_or4_1 A B C D X VDD VSS
.ends

* Black-box entry subcircuit for sg13g2_mux4_1 abstract view
.subckt sg13g2_mux4_1 S0 A0 A1 A2 A3 S1 X VDD VSS
.ends

* Black-box entry subcircuit for sg13g2_and4_1 abstract view
.subckt sg13g2_and4_1 A B C D X VDD VSS
.ends

* Black-box entry subcircuit for sg13g2_or2_1 abstract view
.subckt sg13g2_or2_1 VSS VDD X B A
.ends

.subckt heichips25_ppwm VGND VPWR clk ena rst_n ui_in[0] ui_in[1] ui_in[2] ui_in[3]
+ ui_in[4] ui_in[5] ui_in[6] ui_in[7] uio_in[0] uio_in[1] uio_in[2] uio_in[3] uio_in[4]
+ uio_in[5] uio_in[6] uio_in[7] uio_oe[0] uio_oe[1] uio_oe[2] uio_oe[3] uio_oe[4]
+ uio_oe[5] uio_oe[6] uio_oe[7] uio_out[0] uio_out[1] uio_out[2] uio_out[3] uio_out[4]
+ uio_out[5] uio_out[6] uio_out[7] uo_out[0] uo_out[1] uo_out[2] uo_out[3] uo_out[4]
+ uo_out[5] uo_out[6] uo_out[7]
XFILLER_28_918 VPWR VGND sg13g2_decap_8
XFILLER_36_19 VPWR VGND sg13g2_fill_1
XFILLER_23_601 VPWR VGND sg13g2_decap_8
XFILLER_36_984 VPWR VGND sg13g2_decap_8
XFILLER_22_111 VPWR VGND sg13g2_decap_8
XFILLER_23_678 VPWR VGND sg13g2_decap_8
XFILLER_2_527 VPWR VGND sg13g2_decap_8
XFILLER_18_417 VPWR VGND sg13g2_fill_2
XFILLER_19_918 VPWR VGND sg13g2_decap_8
XFILLER_46_748 VPWR VGND sg13g2_decap_8
XFILLER_33_409 VPWR VGND sg13g2_fill_2
XFILLER_14_601 VPWR VGND sg13g2_decap_8
XFILLER_27_984 VPWR VGND sg13g2_decap_8
XFILLER_42_943 VPWR VGND sg13g2_decap_8
XFILLER_41_453 VPWR VGND sg13g2_decap_8
XFILLER_14_678 VPWR VGND sg13g2_decap_8
XFILLER_6_800 VPWR VGND sg13g2_decap_8
Xu_ppwm_u_pwm__182_ net547 u_ppwm_u_pwm__182_/B hold180/A VPWR VGND sg13g2_nor2_1
XFILLER_6_877 VPWR VGND sg13g2_decap_8
XFILLER_1_560 VPWR VGND sg13g2_decap_8
XFILLER_49_564 VPWR VGND sg13g2_decap_8
XFILLER_37_759 VPWR VGND sg13g2_decap_8
XFILLER_18_995 VPWR VGND sg13g2_decap_8
XFILLER_33_932 VPWR VGND sg13g2_decap_8
XFILLER_20_648 VPWR VGND sg13g2_decap_8
Xu_ppwm_u_ex__0995_ net358 u_ppwm_u_ex__0995_/B u_ppwm_u_ex__1000_/B VPWR VGND sg13g2_nor2_1
XFILLER_41_1013 VPWR VGND sg13g2_decap_8
XFILLER_28_715 VPWR VGND sg13g2_decap_8
XFILLER_36_781 VPWR VGND sg13g2_decap_8
XFILLER_23_442 VPWR VGND sg13g2_decap_8
XFILLER_23_453 VPWR VGND sg13g2_fill_1
XFILLER_24_976 VPWR VGND sg13g2_decap_8
XFILLER_11_637 VPWR VGND sg13g2_decap_8
XFILLER_7_619 VPWR VGND sg13g2_decap_8
XFILLER_3_814 VPWR VGND sg13g2_decap_8
XFILLER_5_4 VPWR VGND sg13g2_decap_8
XFILLER_2_335 VPWR VGND sg13g2_decap_4
Xhold170 hold170/A VPWR VGND net538 sg13g2_dlygate4sd3_1
Xhold181 hold181/A VPWR VGND net549 sg13g2_dlygate4sd3_1
Xhold192 hold192/A VPWR VGND net560 sg13g2_dlygate4sd3_1
XFILLER_19_715 VPWR VGND sg13g2_decap_8
XFILLER_46_545 VPWR VGND sg13g2_decap_8
XFILLER_18_236 VPWR VGND sg13g2_fill_2
XFILLER_27_781 VPWR VGND sg13g2_decap_8
XFILLER_42_740 VPWR VGND sg13g2_decap_8
XFILLER_15_943 VPWR VGND sg13g2_decap_8
XFILLER_41_250 VPWR VGND sg13g2_fill_2
XFILLER_30_924 VPWR VGND sg13g2_decap_8
Xu_ppwm_u_mem__0992_ net497 VPWR u_ppwm_u_mem__0992_/Y VGND net413 net228 sg13g2_o21ai_1
Xu_ppwm_u_ex__0780_ u_ppwm_u_ex__0781_/A u_ppwm_u_ex__0819_/C u_ppwm_u_ex__0780_/X
+ VPWR VGND sg13g2_and2_1
Xu_ppwm_u_pwm__234_ net177 VGND VPWR net210 hold11/A clknet_5_1__leaf_clk sg13g2_dfrbpq_1
Xu_ppwm_u_pwm__165_ VGND VPWR net549 u_ppwm_u_pwm__163_/A hold182/A u_ppwm_u_pwm__164_/Y
+ sg13g2_a21oi_1
XFILLER_6_674 VPWR VGND sg13g2_decap_8
XFILLER_2_891 VPWR VGND sg13g2_decap_8
XFILLER_49_361 VPWR VGND sg13g2_decap_8
XFILLER_37_556 VPWR VGND sg13g2_decap_8
XFILLER_25_729 VPWR VGND sg13g2_decap_8
XFILLER_18_792 VPWR VGND sg13g2_decap_8
XFILLER_21_946 VPWR VGND sg13g2_decap_8
Xu_ppwm_u_ex__0978_ VGND VPWR u_ppwm_u_ex__0970_/Y u_ppwm_u_ex__0976_/Y u_ppwm_u_ex__1114_/D
+ u_ppwm_u_ex__0977_/Y sg13g2_a21oi_1
XFILLER_20_445 VPWR VGND sg13g2_decap_8
Xclkbuf_4_12_0_clk clknet_0_clk clknet_4_12_0_clk VPWR VGND sg13g2_buf_8
XFILLER_0_817 VPWR VGND sg13g2_decap_8
Xheichips25_ppwm_11 VPWR VGND uio_out[0] sg13g2_tielo
Xheichips25_ppwm_22 VPWR VGND uo_out[4] sg13g2_tielo
XFILLER_28_589 VPWR VGND sg13g2_decap_8
XFILLER_43_559 VPWR VGND sg13g2_decap_8
XFILLER_15_239 VPWR VGND sg13g2_decap_8
XFILLER_12_902 VPWR VGND sg13g2_decap_8
XFILLER_24_773 VPWR VGND sg13g2_decap_8
XFILLER_12_979 VPWR VGND sg13g2_decap_8
XFILLER_3_611 VPWR VGND sg13g2_decap_8
XFILLER_3_688 VPWR VGND sg13g2_decap_8
Xfanout491 net492 net491 VPWR VGND sg13g2_buf_1
XFILLER_19_512 VPWR VGND sg13g2_decap_8
Xfanout480 net487 net480 VPWR VGND sg13g2_buf_8
XFILLER_47_865 VPWR VGND sg13g2_decap_8
XFILLER_46_342 VPWR VGND sg13g2_decap_8
Xu_ppwm_u_mem__1146__70 VPWR VGND net70 sg13g2_tiehi
XFILLER_0_35 VPWR VGND sg13g2_decap_8
Xu_ppwm_u_mem__1191_ net170 VGND VPWR net539 hold203/A clknet_5_12__leaf_clk sg13g2_dfrbpq_1
XFILLER_19_589 VPWR VGND sg13g2_decap_8
XFILLER_34_548 VPWR VGND sg13g2_decap_8
XFILLER_15_740 VPWR VGND sg13g2_decap_8
Xu_ppwm_u_ex__0901_ u_ppwm_u_ex__0880_/Y VPWR u_ppwm_u_ex__0901_/Y VGND u_ppwm_u_ex__0881_/Y
+ u_ppwm_u_ex__0884_/Y sg13g2_o21ai_1
XFILLER_30_721 VPWR VGND sg13g2_decap_8
Xu_ppwm_u_ex__0832_ u_ppwm_u_ex__0831_/Y VPWR u_ppwm_u_ex__0833_/C VGND net360 u_ppwm_u_ex__0830_/Y
+ sg13g2_o21ai_1
XFILLER_30_798 VPWR VGND sg13g2_decap_8
Xu_ppwm_u_mem__0975_ VGND VPWR net415 u_ppwm_u_mem__0667_/Y hold118/A u_ppwm_u_mem__0974_/Y
+ sg13g2_a21oi_1
Xu_ppwm_u_pwm__217_ VPWR VGND u_ppwm_u_pwm__203_/Y u_ppwm_u_pwm__216_/Y u_ppwm_u_pwm__215_/Y
+ u_ppwm_u_pwm__206_/Y u_ppwm_u_pwm__222_/A u_ppwm_u_pwm__209_/D sg13g2_a221oi_1
Xu_ppwm_u_ex__0763_ u_ppwm_u_ex__0763_/A u_ppwm_u_ex__0762_/Y u_ppwm_u_ex__0763_/Y
+ VPWR VGND sg13g2_nor2b_1
XFILLER_7_983 VPWR VGND sg13g2_decap_8
XFILLER_6_471 VPWR VGND sg13g2_decap_8
Xu_ppwm_u_ex__0694_ hold310/A u_ppwm_u_ex__0998_/B2 u_ppwm_u_ex__0694_/Y VPWR VGND
+ sg13g2_nor2b_1
Xu_ppwm_u_pwm__148_ VGND VPWR u_ppwm_u_pwm__132_/Y net390 hold166/A u_ppwm_u_pwm__147_/Y
+ sg13g2_a21oi_1
XFILLER_9_1013 VPWR VGND sg13g2_decap_8
XFILLER_38_865 VPWR VGND sg13g2_decap_8
Xu_ppwm_u_global_counter__097_ VGND VPWR u_ppwm_u_global_counter__056_/Y u_ppwm_u_global_counter__093_/Y
+ hold255/A u_ppwm_u_global_counter__099_/B sg13g2_a21oi_1
XFILLER_25_526 VPWR VGND sg13g2_decap_8
XFILLER_37_386 VPWR VGND sg13g2_fill_2
XFILLER_21_743 VPWR VGND sg13g2_decap_8
XFILLER_0_614 VPWR VGND sg13g2_decap_8
XFILLER_48_607 VPWR VGND sg13g2_decap_8
XFILLER_47_106 VPWR VGND sg13g2_fill_2
XFILLER_29_854 VPWR VGND sg13g2_decap_8
XFILLER_44_813 VPWR VGND sg13g2_decap_8
XFILLER_16_559 VPWR VGND sg13g2_decap_8
XFILLER_24_570 VPWR VGND sg13g2_decap_8
XFILLER_12_776 VPWR VGND sg13g2_decap_8
XFILLER_8_758 VPWR VGND sg13g2_decap_8
XFILLER_7_257 VPWR VGND sg13g2_decap_8
XFILLER_11_297 VPWR VGND sg13g2_fill_1
Xu_ppwm_u_mem__0760_ u_ppwm_u_mem__0760_/Y net395 u_ppwm_u_mem__0760_/B VPWR VGND
+ sg13g2_nand2_1
XFILLER_4_953 VPWR VGND sg13g2_decap_8
Xu_ppwm_u_mem__0691_ VPWR u_ppwm_u_mem__0691_/Y net314 VGND sg13g2_inv_1
XFILLER_3_485 VPWR VGND sg13g2_decap_8
Xu_ppwm_u_ex__1100_ net51 VGND VPWR u_ppwm_u_ex__1100_/D hold321/A clknet_5_25__leaf_clk
+ sg13g2_dfrbpq_2
Xu_ppwm_u_ex__1031_ u_ppwm_u_ex__1030_/Y VPWR u_ppwm_u_ex__1035_/C VGND u_ppwm_u_ex__1054_/A
+ u_ppwm_u_ex__1029_/Y sg13g2_o21ai_1
XFILLER_47_662 VPWR VGND sg13g2_decap_8
Xu_ppwm_u_mem__1174_ net119 VGND VPWR u_ppwm_u_mem__1174_/D hold94/A clknet_5_11__leaf_clk
+ sg13g2_dfrbpq_1
XFILLER_46_183 VPWR VGND sg13g2_fill_1
XFILLER_35_857 VPWR VGND sg13g2_decap_8
XFILLER_22_507 VPWR VGND sg13g2_decap_8
Xu_ppwm_u_ex__0815_ net466 hold292/A net386 u_ppwm_u_ex__0816_/B VPWR VGND sg13g2_mux2_1
XFILLER_30_595 VPWR VGND sg13g2_decap_8
Xu_ppwm_u_ex__0746_ u_ppwm_u_ex__0746_/Y net466 net445 VPWR VGND sg13g2_nand2b_1
Xu_ppwm_u_mem__0958_ net510 VPWR u_ppwm_u_mem__0958_/Y VGND net429 net309 sg13g2_o21ai_1
XFILLER_7_780 VPWR VGND sg13g2_decap_8
Xu_ppwm_u_ex__0677_ u_ppwm_u_ex__0676_/Y VPWR u_ppwm_u_ex__0678_/C VGND u_ppwm_u_ex__0732_/B
+ hold240/A sg13g2_o21ai_1
Xu_ppwm_u_mem__0889_ VGND VPWR net423 u_ppwm_u_mem__0710_/Y u_ppwm_u_mem__1121_/D
+ u_ppwm_u_mem__0888_/Y sg13g2_a21oi_1
XFILLER_29_139 VPWR VGND sg13g2_fill_1
XFILLER_26_813 VPWR VGND sg13g2_decap_8
XFILLER_37_150 VPWR VGND sg13g2_fill_2
XFILLER_38_662 VPWR VGND sg13g2_decap_8
XFILLER_13_507 VPWR VGND sg13g2_decap_8
XFILLER_25_356 VPWR VGND sg13g2_decap_8
XFILLER_25_367 VPWR VGND sg13g2_fill_2
XFILLER_41_838 VPWR VGND sg13g2_decap_8
XFILLER_21_540 VPWR VGND sg13g2_decap_8
XFILLER_5_717 VPWR VGND sg13g2_decap_8
XFILLER_4_216 VPWR VGND sg13g2_decap_8
XFILLER_0_411 VPWR VGND sg13g2_decap_8
XFILLER_1_945 VPWR VGND sg13g2_decap_8
XFILLER_49_949 VPWR VGND sg13g2_decap_8
Xhold30 hold30/A VPWR VGND net228 sg13g2_dlygate4sd3_1
Xu_ppwm_u_mem__1173__123 VPWR VGND net123 sg13g2_tiehi
XFILLER_48_404 VPWR VGND sg13g2_decap_8
Xhold41 hold41/A VPWR VGND net239 sg13g2_dlygate4sd3_1
XFILLER_0_488 VPWR VGND sg13g2_decap_8
Xhold74 hold74/A VPWR VGND net272 sg13g2_dlygate4sd3_1
Xhold52 hold52/A VPWR VGND net250 sg13g2_dlygate4sd3_1
Xhold63 hold63/A VPWR VGND net261 sg13g2_dlygate4sd3_1
Xhold85 hold85/A VPWR VGND net283 sg13g2_dlygate4sd3_1
XFILLER_29_651 VPWR VGND sg13g2_decap_8
Xhold96 hold96/A VPWR VGND net294 sg13g2_dlygate4sd3_1
XFILLER_44_610 VPWR VGND sg13g2_decap_8
XFILLER_17_824 VPWR VGND sg13g2_decap_8
XFILLER_44_687 VPWR VGND sg13g2_decap_8
XFILLER_25_890 VPWR VGND sg13g2_decap_8
XFILLER_12_573 VPWR VGND sg13g2_decap_8
XFILLER_8_555 VPWR VGND sg13g2_decap_8
Xu_ppwm_u_ex__0600_ u_ppwm_u_ex__0600_/Y net446 u_ppwm_u_ex__0601_/C VPWR VGND sg13g2_nand2_1
Xu_ppwm_u_mem__0812_ hold107/A hold141/A net480 u_ppwm_u_mem__0812_/X VPWR VGND sg13g2_mux2_1
XFILLER_6_67 VPWR VGND sg13g2_fill_1
Xu_ppwm_u_mem__0743_ u_ppwm_u_mem__0743_/Y net396 u_ppwm_u_mem__0743_/B VPWR VGND
+ sg13g2_nand2_1
XFILLER_4_750 VPWR VGND sg13g2_decap_8
Xu_ppwm_u_mem__0674_ VPWR u_ppwm_u_mem__0674_/Y net245 VGND sg13g2_inv_1
XFILLER_48_971 VPWR VGND sg13g2_decap_8
Xu_ppwm_u_ex__1014_ u_ppwm_u_ex__1014_/A u_ppwm_u_ex__1012_/Y u_ppwm_u_ex__1117_/D
+ VPWR VGND sg13g2_nor2b_1
Xu_ppwm_u_mem__1226_ net176 VGND VPWR net334 hold135/A clknet_5_3__leaf_clk sg13g2_dfrbpq_1
Xu_ppwm_u_mem__1157_ net167 VGND VPWR net246 hold173/A clknet_5_31__leaf_clk sg13g2_dfrbpq_1
XFILLER_35_654 VPWR VGND sg13g2_decap_8
Xu_ppwm_u_mem__1088_ u_ppwm_u_mem__1103_/A u_ppwm_u_mem__1088_/B u_ppwm_u_mem__1090_/B
+ u_ppwm_u_mem__1219_/D VPWR VGND sg13g2_nor3_1
XFILLER_34_186 VPWR VGND sg13g2_fill_1
XFILLER_2_709 VPWR VGND sg13g2_decap_8
Xu_ppwm_u_ex__0729_ net460 net449 u_ppwm_u_ex__0730_/D VPWR VGND sg13g2_xor2_1
XFILLER_45_429 VPWR VGND sg13g2_decap_8
XFILLER_26_610 VPWR VGND sg13g2_decap_8
XFILLER_26_687 VPWR VGND sg13g2_decap_8
XFILLER_41_635 VPWR VGND sg13g2_decap_8
XFILLER_25_186 VPWR VGND sg13g2_fill_2
XFILLER_22_871 VPWR VGND sg13g2_decap_8
XFILLER_40_189 VPWR VGND sg13g2_decap_8
XFILLER_21_381 VPWR VGND sg13g2_fill_1
XFILLER_5_514 VPWR VGND sg13g2_decap_8
XFILLER_1_742 VPWR VGND sg13g2_decap_8
XFILLER_48_201 VPWR VGND sg13g2_decap_8
XFILLER_0_241 VPWR VGND sg13g2_decap_8
XFILLER_49_746 VPWR VGND sg13g2_decap_8
XFILLER_48_278 VPWR VGND sg13g2_decap_8
XFILLER_17_621 VPWR VGND sg13g2_decap_8
Xu_ppwm_u_mem__1011_ VGND VPWR net410 u_ppwm_u_mem__0649_/Y hold148/A u_ppwm_u_mem__1010_/Y
+ sg13g2_a21oi_1
XFILLER_45_996 VPWR VGND sg13g2_decap_8
XFILLER_44_484 VPWR VGND sg13g2_decap_8
XFILLER_16_164 VPWR VGND sg13g2_decap_8
XFILLER_16_175 VPWR VGND sg13g2_fill_2
XFILLER_17_698 VPWR VGND sg13g2_decap_8
XFILLER_13_871 VPWR VGND sg13g2_decap_8
XFILLER_32_668 VPWR VGND sg13g2_decap_8
XFILLER_9_831 VPWR VGND sg13g2_decap_8
Xclkbuf_5_17__f_clk clknet_4_8_0_clk clknet_5_17__leaf_clk VPWR VGND sg13g2_buf_8
XFILLER_8_341 VPWR VGND sg13g2_decap_8
Xu_ppwm_u_mem__0726_ VPWR u_ppwm_u_mem__0726_/Y net333 VGND sg13g2_inv_1
Xu_ppwm_u_mem__0657_ VPWR u_ppwm_u_mem__0657_/Y net297 VGND sg13g2_inv_1
XFILLER_27_407 VPWR VGND sg13g2_fill_2
Xu_ppwm_u_mem__1209_ net168 VGND VPWR u_ppwm_u_mem__1209_/D hold120/A clknet_5_8__leaf_clk
+ sg13g2_dfrbpq_1
XFILLER_36_963 VPWR VGND sg13g2_decap_8
XFILLER_23_657 VPWR VGND sg13g2_decap_8
XFILLER_11_819 VPWR VGND sg13g2_decap_8
Xu_ppwm_u_mem__1163__155 VPWR VGND net155 sg13g2_tiehi
XFILLER_2_506 VPWR VGND sg13g2_decap_8
XFILLER_46_727 VPWR VGND sg13g2_decap_8
XFILLER_45_226 VPWR VGND sg13g2_decap_8
XFILLER_27_963 VPWR VGND sg13g2_decap_8
XFILLER_42_922 VPWR VGND sg13g2_decap_8
XFILLER_41_432 VPWR VGND sg13g2_decap_8
XFILLER_13_101 VPWR VGND sg13g2_decap_8
XFILLER_14_657 VPWR VGND sg13g2_decap_8
XFILLER_42_999 VPWR VGND sg13g2_decap_8
XFILLER_13_167 VPWR VGND sg13g2_fill_1
Xu_ppwm_u_pwm__181_ u_ppwm_u_pwm__182_/B net489 hold269/A VPWR VGND sg13g2_nand2_1
XFILLER_10_885 VPWR VGND sg13g2_decap_8
XFILLER_6_856 VPWR VGND sg13g2_decap_8
XFILLER_49_543 VPWR VGND sg13g2_decap_8
XFILLER_37_738 VPWR VGND sg13g2_decap_8
XFILLER_18_974 VPWR VGND sg13g2_decap_8
XFILLER_33_911 VPWR VGND sg13g2_decap_8
XFILLER_45_793 VPWR VGND sg13g2_decap_8
XFILLER_17_495 VPWR VGND sg13g2_decap_8
XFILLER_33_988 VPWR VGND sg13g2_decap_8
XFILLER_20_627 VPWR VGND sg13g2_decap_8
Xu_ppwm_u_ex__0994_ u_ppwm_u_ex__0995_/B u_ppwm_u_ex__0994_/A u_ppwm_u_ex__0994_/B
+ VPWR VGND sg13g2_xnor2_1
XFILLER_34_1010 VPWR VGND sg13g2_decap_8
XFILLER_8_193 VPWR VGND sg13g2_decap_8
Xu_ppwm_u_mem__0709_ VPWR u_ppwm_u_mem__0709_/Y net551 VGND sg13g2_inv_1
XFILLER_36_760 VPWR VGND sg13g2_decap_8
XFILLER_24_955 VPWR VGND sg13g2_decap_8
XFILLER_11_616 VPWR VGND sg13g2_decap_8
Xhold160 hold160/A VPWR VGND net528 sg13g2_dlygate4sd3_1
Xhold171 hold171/A VPWR VGND net539 sg13g2_dlygate4sd3_1
Xhold182 hold182/A VPWR VGND net550 sg13g2_dlygate4sd3_1
Xhold193 hold193/A VPWR VGND net561 sg13g2_dlygate4sd3_1
XFILLER_46_524 VPWR VGND sg13g2_decap_8
XFILLER_18_204 VPWR VGND sg13g2_fill_1
XFILLER_15_922 VPWR VGND sg13g2_decap_8
XFILLER_27_760 VPWR VGND sg13g2_decap_8
XFILLER_18_1016 VPWR VGND sg13g2_decap_8
XFILLER_18_1027 VPWR VGND sg13g2_fill_2
XFILLER_30_903 VPWR VGND sg13g2_decap_8
XFILLER_42_796 VPWR VGND sg13g2_decap_8
XFILLER_41_262 VPWR VGND sg13g2_fill_1
XFILLER_15_999 VPWR VGND sg13g2_decap_8
Xu_ppwm_u_mem__0991_ VGND VPWR net413 u_ppwm_u_mem__0659_/Y hold31/A u_ppwm_u_mem__0990_/Y
+ sg13g2_a21oi_1
Xu_ppwm_u_pwm__233_ net179 VGND VPWR net261 hold62/A clknet_5_1__leaf_clk sg13g2_dfrbpq_1
XFILLER_6_653 VPWR VGND sg13g2_decap_8
XFILLER_5_130 VPWR VGND sg13g2_decap_8
XFILLER_10_682 VPWR VGND sg13g2_decap_8
Xu_ppwm_u_pwm__164_ net489 VPWR u_ppwm_u_pwm__164_/Y VGND net549 u_ppwm_u_pwm__163_/A
+ sg13g2_o21ai_1
XFILLER_5_152 VPWR VGND sg13g2_decap_8
XFILLER_2_870 VPWR VGND sg13g2_decap_8
XFILLER_25_1009 VPWR VGND sg13g2_decap_8
XFILLER_49_340 VPWR VGND sg13g2_decap_8
XFILLER_25_708 VPWR VGND sg13g2_decap_8
XFILLER_37_535 VPWR VGND sg13g2_decap_8
XFILLER_18_771 VPWR VGND sg13g2_decap_8
XFILLER_45_590 VPWR VGND sg13g2_decap_8
XFILLER_17_292 VPWR VGND sg13g2_decap_8
XFILLER_21_925 VPWR VGND sg13g2_decap_8
XFILLER_32_262 VPWR VGND sg13g2_fill_2
XFILLER_33_785 VPWR VGND sg13g2_decap_8
Xu_ppwm_u_ex__0977_ net492 VPWR u_ppwm_u_ex__0977_/Y VGND net454 net353 sg13g2_o21ai_1
Xheichips25_ppwm_23 VPWR VGND uo_out[5] sg13g2_tielo
Xheichips25_ppwm_12 VPWR VGND uio_out[1] sg13g2_tielo
XFILLER_28_568 VPWR VGND sg13g2_decap_8
XFILLER_43_538 VPWR VGND sg13g2_decap_8
XFILLER_24_752 VPWR VGND sg13g2_decap_8
XFILLER_12_958 VPWR VGND sg13g2_decap_8
XFILLER_20_991 VPWR VGND sg13g2_decap_8
XFILLER_3_667 VPWR VGND sg13g2_decap_8
XFILLER_2_155 VPWR VGND sg13g2_fill_2
Xfanout492 net493 net492 VPWR VGND sg13g2_buf_8
Xfanout470 hold305/A net470 VPWR VGND sg13g2_buf_8
Xfanout481 net487 net481 VPWR VGND sg13g2_buf_8
XFILLER_47_844 VPWR VGND sg13g2_decap_8
XFILLER_46_321 VPWR VGND sg13g2_decap_8
XFILLER_0_14 VPWR VGND sg13g2_decap_8
Xu_ppwm_u_mem__1190_ net55 VGND VPWR u_ppwm_u_mem__1190_/D hold128/A clknet_5_8__leaf_clk
+ sg13g2_dfrbpq_1
XFILLER_19_568 VPWR VGND sg13g2_decap_8
XFILLER_46_398 VPWR VGND sg13g2_decap_8
Xu_ppwm_u_ex__0900_ u_ppwm_u_ex__0900_/A u_ppwm_u_ex__0898_/Y u_ppwm_u_ex__1109_/D
+ VPWR VGND sg13g2_nor2b_1
XFILLER_14_262 VPWR VGND sg13g2_decap_4
XFILLER_15_796 VPWR VGND sg13g2_decap_8
XFILLER_30_700 VPWR VGND sg13g2_decap_8
XFILLER_42_593 VPWR VGND sg13g2_decap_8
Xu_ppwm_u_ex__0831_ u_ppwm_u_ex__0831_/Y net678 u_ppwm_u_ex__0831_/B VPWR VGND sg13g2_nand2_1
Xu_ppwm_u_mem__0974_ net498 VPWR u_ppwm_u_mem__0974_/Y VGND net415 hold163/A sg13g2_o21ai_1
Xu_ppwm_u_ex__0762_ VPWR VGND u_ppwm_u_ex__0757_/A u_ppwm_u_ex__0761_/Y hold262/A
+ u_ppwm_u_ex__0954_/A u_ppwm_u_ex__0762_/Y net442 sg13g2_a221oi_1
XFILLER_30_777 VPWR VGND sg13g2_decap_8
XFILLER_31_1024 VPWR VGND sg13g2_decap_4
XFILLER_7_962 VPWR VGND sg13g2_decap_8
Xu_ppwm_u_pwm__216_ u_ppwm_u_pwm__216_/A u_ppwm_u_pwm__216_/B u_ppwm_u_pwm__216_/C
+ u_ppwm_u_pwm__216_/Y VPWR VGND sg13g2_nor3_1
XFILLER_11_980 VPWR VGND sg13g2_decap_8
Xu_ppwm_u_ex__0693_ u_ppwm_u_ex__0693_/Y hold314/A u_ppwm_u_ex__0693_/B VPWR VGND
+ sg13g2_nand2_1
Xu_ppwm_u_pwm__147_ net490 VPWR u_ppwm_u_pwm__147_/Y VGND hold324/A net390 sg13g2_o21ai_1
XFILLER_38_844 VPWR VGND sg13g2_decap_8
Xu_ppwm_u_global_counter__096_ net392 u_ppwm_u_global_counter__103_/C u_ppwm_u_global_counter__099_/B
+ VPWR VGND sg13g2_and2_1
XFILLER_25_505 VPWR VGND sg13g2_decap_8
XFILLER_21_722 VPWR VGND sg13g2_decap_8
XFILLER_33_582 VPWR VGND sg13g2_decap_8
XFILLER_21_799 VPWR VGND sg13g2_decap_8
XFILLER_18_10 VPWR VGND sg13g2_fill_1
XFILLER_47_129 VPWR VGND sg13g2_decap_8
XFILLER_29_833 VPWR VGND sg13g2_decap_8
XFILLER_16_538 VPWR VGND sg13g2_decap_8
XFILLER_28_376 VPWR VGND sg13g2_decap_4
XFILLER_44_869 VPWR VGND sg13g2_decap_8
XFILLER_34_20 VPWR VGND sg13g2_fill_2
XFILLER_12_755 VPWR VGND sg13g2_decap_8
XFILLER_8_737 VPWR VGND sg13g2_decap_8
XFILLER_7_225 VPWR VGND sg13g2_fill_2
XFILLER_4_932 VPWR VGND sg13g2_decap_8
Xu_ppwm_u_mem__0690_ VPWR u_ppwm_u_mem__0690_/Y net545 VGND sg13g2_inv_1
XFILLER_3_464 VPWR VGND sg13g2_decap_8
XFILLER_39_619 VPWR VGND sg13g2_decap_8
XFILLER_47_641 VPWR VGND sg13g2_decap_8
Xu_ppwm_u_ex__1030_ VGND VPWR u_ppwm_u_ex__1054_/A u_ppwm_u_ex__1029_/Y u_ppwm_u_ex__1030_/Y
+ net357 sg13g2_a21oi_1
Xu_ppwm_u_mem__1173_ net123 VGND VPWR u_ppwm_u_mem__1173_/D hold30/A clknet_5_11__leaf_clk
+ sg13g2_dfrbpq_1
Xclkbuf_4_11_0_clk clknet_0_clk clknet_4_11_0_clk VPWR VGND sg13g2_buf_8
XFILLER_35_836 VPWR VGND sg13g2_decap_8
XFILLER_34_368 VPWR VGND sg13g2_decap_8
XFILLER_34_379 VPWR VGND sg13g2_fill_2
XFILLER_15_593 VPWR VGND sg13g2_decap_8
XFILLER_30_574 VPWR VGND sg13g2_decap_8
Xu_ppwm_u_ex__0814_ VPWR u_ppwm_u_ex__0814_/Y u_ppwm_u_ex__0814_/A VGND sg13g2_inv_1
Xu_ppwm_u_ex__0745_ net464 net444 u_ppwm_u_ex__0745_/Y VPWR VGND sg13g2_nor2b_1
Xu_ppwm_u_mem__0957_ VGND VPWR net419 u_ppwm_u_mem__0676_/Y u_ppwm_u_mem__1155_/D
+ u_ppwm_u_mem__0956_/Y sg13g2_a21oi_1
Xu_ppwm_u_ex__0676_ u_ppwm_u_ex__0676_/Y net458 hold254/A VPWR VGND sg13g2_nand2b_1
Xu_ppwm_u_mem__0888_ net513 VPWR u_ppwm_u_mem__0888_/Y VGND net423 net275 sg13g2_o21ai_1
XFILLER_41_0 VPWR VGND sg13g2_decap_4
Xu_ppwm_u_mem__1204__89 VPWR VGND net89 sg13g2_tiehi
XFILLER_38_641 VPWR VGND sg13g2_decap_8
Xu_ppwm_u_global_counter__079_ net441 u_ppwm_u_global_counter__082_/D net442 u_ppwm_u_global_counter__083_/B
+ VPWR VGND sg13g2_nand3_1
XFILLER_26_869 VPWR VGND sg13g2_decap_8
XFILLER_38_1019 VPWR VGND sg13g2_decap_8
XFILLER_41_817 VPWR VGND sg13g2_decap_8
XFILLER_34_891 VPWR VGND sg13g2_decap_8
XFILLER_21_596 VPWR VGND sg13g2_decap_8
XFILLER_1_924 VPWR VGND sg13g2_decap_8
XFILLER_49_928 VPWR VGND sg13g2_decap_8
Xhold31 hold31/A VPWR VGND net229 sg13g2_dlygate4sd3_1
XFILLER_0_467 VPWR VGND sg13g2_decap_8
Xhold20 hold20/A VPWR VGND net218 sg13g2_dlygate4sd3_1
Xhold53 hold53/A VPWR VGND net251 sg13g2_dlygate4sd3_1
Xhold42 hold42/A VPWR VGND net240 sg13g2_dlygate4sd3_1
XFILLER_29_630 VPWR VGND sg13g2_decap_8
Xhold64 hold64/A VPWR VGND net262 sg13g2_dlygate4sd3_1
XFILLER_17_803 VPWR VGND sg13g2_decap_8
XFILLER_21_1023 VPWR VGND sg13g2_decap_4
Xhold86 hold86/A VPWR VGND net284 sg13g2_dlygate4sd3_1
Xhold97 hold97/A VPWR VGND net295 sg13g2_dlygate4sd3_1
Xhold75 hold75/A VPWR VGND net273 sg13g2_dlygate4sd3_1
XFILLER_44_666 VPWR VGND sg13g2_decap_8
XFILLER_28_195 VPWR VGND sg13g2_fill_2
XFILLER_24_390 VPWR VGND sg13g2_fill_1
XFILLER_12_552 VPWR VGND sg13g2_decap_8
XFILLER_40_894 VPWR VGND sg13g2_decap_8
XFILLER_8_534 VPWR VGND sg13g2_decap_8
Xu_ppwm_u_mem__0811_ net476 u_ppwm_u_mem__0616_/Y u_ppwm_u_mem__0810_/Y u_ppwm_u_mem__0811_/X
+ VPWR VGND sg13g2_a21o_1
Xu_ppwm_u_mem__0742_ hold88/A hold69/A net481 u_ppwm_u_mem__0743_/B VPWR VGND sg13g2_mux2_1
Xu_ppwm_u_mem__0673_ VPWR u_ppwm_u_mem__0673_/Y net536 VGND sg13g2_inv_1
XFILLER_6_1028 VPWR VGND sg13g2_fill_1
XFILLER_6_1017 VPWR VGND sg13g2_decap_8
XFILLER_13_4 VPWR VGND sg13g2_decap_8
XFILLER_48_950 VPWR VGND sg13g2_decap_8
Xu_ppwm_u_mem__1225_ net175 VGND VPWR net567 hold197/A clknet_5_3__leaf_clk sg13g2_dfrbpq_1
Xu_ppwm_u_ex__1013_ net508 VPWR u_ppwm_u_ex__1014_/A VGND net451 net350 sg13g2_o21ai_1
XFILLER_35_633 VPWR VGND sg13g2_decap_8
Xu_ppwm_u_mem__1156_ net169 VGND VPWR u_ppwm_u_mem__1156_/D hold111/A clknet_5_30__leaf_clk
+ sg13g2_dfrbpq_2
Xu_ppwm_u_mem__1087_ net617 net400 u_ppwm_u_mem__1090_/B VPWR VGND sg13g2_and2_1
XFILLER_23_839 VPWR VGND sg13g2_decap_8
Xu_ppwm_u_ex__1102__47 VPWR VGND net47 sg13g2_tiehi
Xu_ppwm_u_ex__0728_ net462 hold313/A u_ppwm_u_ex__0730_/C VPWR VGND sg13g2_nor2b_1
Xu_ppwm_u_ex__0659_ u_ppwm_u_ex__0660_/B u_ppwm_u_ex__0659_/B u_ppwm_u_ex__0656_/Y
+ VPWR VGND sg13g2_nand2b_1
XFILLER_44_1023 VPWR VGND sg13g2_decap_4
XFILLER_46_909 VPWR VGND sg13g2_decap_8
XFILLER_45_408 VPWR VGND sg13g2_decap_8
XFILLER_39_983 VPWR VGND sg13g2_decap_8
XFILLER_26_666 VPWR VGND sg13g2_decap_8
XFILLER_41_614 VPWR VGND sg13g2_decap_8
XFILLER_14_839 VPWR VGND sg13g2_decap_8
XFILLER_15_11 VPWR VGND sg13g2_decap_8
XFILLER_15_22 VPWR VGND sg13g2_fill_2
XFILLER_9_309 VPWR VGND sg13g2_decap_8
XFILLER_22_850 VPWR VGND sg13g2_decap_8
XFILLER_31_32 VPWR VGND sg13g2_fill_2
XFILLER_0_220 VPWR VGND sg13g2_decap_8
XFILLER_1_721 VPWR VGND sg13g2_decap_8
XFILLER_49_725 VPWR VGND sg13g2_decap_8
XFILLER_0_264 VPWR VGND sg13g2_fill_1
XFILLER_0_297 VPWR VGND sg13g2_decap_4
XFILLER_1_798 VPWR VGND sg13g2_decap_8
XFILLER_48_257 VPWR VGND sg13g2_decap_8
XFILLER_17_600 VPWR VGND sg13g2_decap_8
Xu_ppwm_u_mem__1010_ net495 VPWR u_ppwm_u_mem__1010_/Y VGND net410 hold172/A sg13g2_o21ai_1
XFILLER_45_975 VPWR VGND sg13g2_decap_8
XFILLER_44_463 VPWR VGND sg13g2_decap_8
XFILLER_17_677 VPWR VGND sg13g2_decap_8
XFILLER_32_647 VPWR VGND sg13g2_decap_8
XFILLER_9_810 VPWR VGND sg13g2_decap_8
XFILLER_13_850 VPWR VGND sg13g2_decap_8
XFILLER_20_809 VPWR VGND sg13g2_decap_8
XFILLER_31_146 VPWR VGND sg13g2_fill_1
XFILLER_31_168 VPWR VGND sg13g2_fill_2
XFILLER_40_691 VPWR VGND sg13g2_decap_8
XFILLER_9_887 VPWR VGND sg13g2_decap_8
Xu_ppwm_u_mem__0725_ u_ppwm_u_mem__1094_/A net488 VPWR VGND sg13g2_inv_2
Xu_ppwm_u_mem__0656_ VPWR u_ppwm_u_mem__0656_/Y net579 VGND sg13g2_inv_1
Xu_ppwm_u_mem__1208_ net57 VGND VPWR u_ppwm_u_mem__1208_/D hold55/A clknet_5_8__leaf_clk
+ sg13g2_dfrbpq_1
XFILLER_36_942 VPWR VGND sg13g2_decap_8
Xheichips25_ppwm_3 VPWR VGND uio_oe[0] sg13g2_tielo
Xu_ppwm_u_mem__1139_ net84 VGND VPWR net227 hold191/A clknet_5_26__leaf_clk sg13g2_dfrbpq_1
XFILLER_23_636 VPWR VGND sg13g2_decap_8
XFILLER_11_1022 VPWR VGND sg13g2_decap_8
Xhold320 hold320/A VPWR VGND net688 sg13g2_dlygate4sd3_1
XFILLER_46_706 VPWR VGND sg13g2_decap_8
XFILLER_39_780 VPWR VGND sg13g2_decap_8
XFILLER_26_32 VPWR VGND sg13g2_decap_8
Xclkbuf_5_23__f_clk clknet_4_11_0_clk clknet_5_23__leaf_clk VPWR VGND sg13g2_buf_8
XFILLER_27_942 VPWR VGND sg13g2_decap_8
XFILLER_42_901 VPWR VGND sg13g2_decap_8
XFILLER_26_463 VPWR VGND sg13g2_fill_2
XFILLER_14_636 VPWR VGND sg13g2_decap_8
XFILLER_42_978 VPWR VGND sg13g2_decap_8
XFILLER_41_488 VPWR VGND sg13g2_decap_8
Xu_ppwm_u_pwm__180_ net636 u_ppwm_u_pwm__180_/C net546 hold269/A VPWR VGND sg13g2_nand3_1
XFILLER_6_835 VPWR VGND sg13g2_decap_8
XFILLER_10_864 VPWR VGND sg13g2_decap_8
XFILLER_5_389 VPWR VGND sg13g2_fill_1
XFILLER_3_47 VPWR VGND sg13g2_fill_2
XFILLER_3_25 VPWR VGND sg13g2_decap_8
XFILLER_49_522 VPWR VGND sg13g2_decap_8
XFILLER_1_595 VPWR VGND sg13g2_decap_8
XFILLER_49_599 VPWR VGND sg13g2_decap_8
XFILLER_37_717 VPWR VGND sg13g2_decap_8
XFILLER_18_953 VPWR VGND sg13g2_decap_8
XFILLER_29_290 VPWR VGND sg13g2_fill_2
XFILLER_36_227 VPWR VGND sg13g2_decap_8
XFILLER_45_772 VPWR VGND sg13g2_decap_8
XFILLER_20_606 VPWR VGND sg13g2_decap_8
XFILLER_33_967 VPWR VGND sg13g2_decap_8
Xu_ppwm_u_ex__0993_ net380 net453 u_ppwm_u_ex__0994_/B VPWR VGND sg13g2_xor2_1
XFILLER_9_684 VPWR VGND sg13g2_decap_8
Xu_ppwm_u_mem__0708_ VPWR u_ppwm_u_mem__0708_/Y net543 VGND sg13g2_inv_1
Xu_ppwm_u_mem__0639_ VPWR u_ppwm_u_mem__0639_/Y net568 VGND sg13g2_inv_1
XFILLER_27_227 VPWR VGND sg13g2_fill_1
XFILLER_24_934 VPWR VGND sg13g2_decap_8
Xu_ppwm_u_pwm__234__177 VPWR VGND net177 sg13g2_tiehi
Xhold150 hold150/A VPWR VGND net348 sg13g2_dlygate4sd3_1
XFILLER_3_849 VPWR VGND sg13g2_decap_8
Xhold161 hold161/A VPWR VGND net529 sg13g2_dlygate4sd3_1
Xhold194 hold194/A VPWR VGND net562 sg13g2_dlygate4sd3_1
Xhold183 hold183/A VPWR VGND net551 sg13g2_dlygate4sd3_1
Xhold172 hold172/A VPWR VGND net540 sg13g2_dlygate4sd3_1
XFILLER_46_503 VPWR VGND sg13g2_decap_8
XFILLER_15_901 VPWR VGND sg13g2_decap_8
XFILLER_34_709 VPWR VGND sg13g2_decap_8
XFILLER_26_282 VPWR VGND sg13g2_decap_8
XFILLER_33_219 VPWR VGND sg13g2_fill_2
XFILLER_15_978 VPWR VGND sg13g2_decap_8
XFILLER_42_775 VPWR VGND sg13g2_decap_8
XFILLER_41_252 VPWR VGND sg13g2_fill_1
Xu_ppwm_u_mem__0990_ net497 VPWR u_ppwm_u_mem__0990_/Y VGND net413 hold105/A sg13g2_o21ai_1