* NGSPICE file created from tiny_wrapper.ext - technology: ihp-sg13g2

* Black-box entry subcircuit for sg13g2_dfrbpq_1 abstract view
.subckt sg13g2_dfrbpq_1 RESET_B VSS VDD D Q CLK
.ends

* Black-box entry subcircuit for sg13g2_decap_8 abstract view
.subckt sg13g2_decap_8 VDD VSS
.ends

* Black-box entry subcircuit for sg13g2_dfrbpq_2 abstract view
.subckt sg13g2_dfrbpq_2 RESET_B VSS VDD D Q CLK
.ends

* Black-box entry subcircuit for sg13g2_nand2_1 abstract view
.subckt sg13g2_nand2_1 Y A B VDD VSS
.ends

* Black-box entry subcircuit for sg13g2_nor2b_1 abstract view
.subckt sg13g2_nor2b_1 A B_N Y VDD VSS
.ends

* Black-box entry subcircuit for sg13g2_fill_2 abstract view
.subckt sg13g2_fill_2 VDD VSS
.ends

* Black-box entry subcircuit for sg13g2_decap_4 abstract view
.subckt sg13g2_decap_4 VDD VSS
.ends

* Black-box entry subcircuit for sg13g2_dlygate4sd3_1 abstract view
.subckt sg13g2_dlygate4sd3_1 A VDD VSS X
.ends

* Black-box entry subcircuit for sg13g2_fill_1 abstract view
.subckt sg13g2_fill_1 VDD VSS
.ends

* Black-box entry subcircuit for sg13g2_tiehi abstract view
.subckt sg13g2_tiehi VDD VSS L_HI
.ends

* Black-box entry subcircuit for sg13g2_o21ai_1 abstract view
.subckt sg13g2_o21ai_1 B1 VDD Y VSS A1 A2
.ends

* Black-box entry subcircuit for sg13g2_a21oi_1 abstract view
.subckt sg13g2_a21oi_1 VSS VDD A1 A2 Y B1
.ends

* Black-box entry subcircuit for sg13g2_inv_1 abstract view
.subckt sg13g2_inv_1 VDD Y A VSS
.ends

* Black-box entry subcircuit for sg13g2_tielo abstract view
.subckt sg13g2_tielo VDD VSS L_LO
.ends

* Black-box entry subcircuit for sg13g2_buf_8 abstract view
.subckt sg13g2_buf_8 A X VDD VSS
.ends

* Black-box entry subcircuit for sg13g2_buf_2 abstract view
.subckt sg13g2_buf_2 A X VDD VSS
.ends

* Black-box entry subcircuit for sg13g2_xor2_1 abstract view
.subckt sg13g2_xor2_1 B A X VDD VSS
.ends

* Black-box entry subcircuit for sg13g2_nand4_1 abstract view
.subckt sg13g2_nand4_1 B C A Y VDD VSS D
.ends

* Black-box entry subcircuit for sg13g2_a221oi_1 abstract view
.subckt sg13g2_a221oi_1 VDD VSS B2 C1 B1 A1 Y A2
.ends

* Black-box entry subcircuit for sg13g2_a22oi_1 abstract view
.subckt sg13g2_a22oi_1 Y B1 B2 A2 A1 VDD VSS
.ends

* Black-box entry subcircuit for sg13g2_and2_1 abstract view
.subckt sg13g2_and2_1 A B X VDD VSS
.ends

* Black-box entry subcircuit for sg13g2_nand3_1 abstract view
.subckt sg13g2_nand3_1 B C A Y VDD VSS
.ends

* Black-box entry subcircuit for sg13g2_xnor2_1 abstract view
.subckt sg13g2_xnor2_1 Y A B VDD VSS
.ends

* Black-box entry subcircuit for sg13g2_buf_1 abstract view
.subckt sg13g2_buf_1 A X VDD VSS
.ends

* Black-box entry subcircuit for sg13g2_nor2_1 abstract view
.subckt sg13g2_nor2_1 A B Y VDD VSS
.ends

* Black-box entry subcircuit for sg13g2_mux2_1 abstract view
.subckt sg13g2_mux2_1 A0 A1 S X VDD VSS
.ends

* Black-box entry subcircuit for sg13g2_and4_1 abstract view
.subckt sg13g2_and4_1 A B C D X VDD VSS
.ends

* Black-box entry subcircuit for sg13g2_nor3_1 abstract view
.subckt sg13g2_nor3_1 A B C Y VDD VSS
.ends

* Black-box entry subcircuit for sg13g2_nand2b_1 abstract view
.subckt sg13g2_nand2b_1 Y B A_N VDD VSS
.ends

* Black-box entry subcircuit for sg13g2_and3_1 abstract view
.subckt sg13g2_and3_1 X A B C VDD VSS
.ends

* Black-box entry subcircuit for sg13g2_a21oi_2 abstract view
.subckt sg13g2_a21oi_2 VSS VDD B1 Y A2 A1
.ends

* Black-box entry subcircuit for sg13g2_nor2_2 abstract view
.subckt sg13g2_nor2_2 A B Y VDD VSS
.ends

* Black-box entry subcircuit for sg13g2_nor3_2 abstract view
.subckt sg13g2_nor3_2 A B C Y VDD VSS
.ends

* Black-box entry subcircuit for sg13g2_inv_4 abstract view
.subckt sg13g2_inv_4 A Y VDD VSS
.ends

* Black-box entry subcircuit for sg13g2_a21o_1 abstract view
.subckt sg13g2_a21o_1 A2 A1 B1 X VDD VSS
.ends

* Black-box entry subcircuit for sg13g2_nand2_2 abstract view
.subckt sg13g2_nand2_2 Y A B VDD VSS
.ends

* Black-box entry subcircuit for sg13g2_inv_2 abstract view
.subckt sg13g2_inv_2 Y A VDD VSS
.ends

* Black-box entry subcircuit for sg13g2_or2_1 abstract view
.subckt sg13g2_or2_1 VSS VDD X B A
.ends

* Black-box entry subcircuit for sg13g2_and3_2 abstract view
.subckt sg13g2_and3_2 X A B C VDD VSS
.ends

* Black-box entry subcircuit for sg13g2_a21o_2 abstract view
.subckt sg13g2_a21o_2 A2 A1 B1 X VDD VSS
.ends

* Black-box entry subcircuit for sg13g2_nor4_2 abstract view
.subckt sg13g2_nor4_2 A B C Y VSS VDD D
.ends

* Black-box entry subcircuit for sg13g2_or3_1 abstract view
.subckt sg13g2_or3_1 A B C X VDD VSS
.ends

* Black-box entry subcircuit for sg13g2_nand2b_2 abstract view
.subckt sg13g2_nand2b_2 Y B VDD VSS A_N
.ends

* Black-box entry subcircuit for sg13g2_nor2b_2 abstract view
.subckt sg13g2_nor2b_2 A B_N Y VDD VSS
.ends

* Black-box entry subcircuit for sg13g2_inv_8 abstract view
.subckt sg13g2_inv_8 Y A VDD VSS
.ends

* Black-box entry subcircuit for sg13g2_nor4_1 abstract view
.subckt sg13g2_nor4_1 A B C D Y VDD VSS
.ends

.subckt tiny_wrapper VGND VPWR clk ena rst_n ui_in[0] ui_in[1] ui_in[2] ui_in[3] ui_in[4]
+ ui_in[5] ui_in[6] ui_in[7] uio_in[0] uio_in[1] uio_in[2] uio_in[3] uio_in[4] uio_in[5]
+ uio_in[6] uio_in[7] uio_oe[0] uio_oe[1] uio_oe[2] uio_oe[3] uio_oe[4] uio_oe[5]
+ uio_oe[6] uio_oe[7] uio_out[0] uio_out[1] uio_out[2] uio_out[3] uio_out[4] uio_out[5]
+ uio_out[6] uio_out[7] uo_out[0] uo_out[1] uo_out[2] uo_out[3] uo_out[4] uo_out[5]
+ uo_out[6] uo_out[7]
X_3155_ net531 VGND VPWR _0049_ sdr_i.mac1.products_ff\[86\] clknet_leaf_43_clk sg13g2_dfrbpq_1
XFILLER_28_918 VPWR VGND sg13g2_decap_8
X_3086_ net94 VGND VPWR _0277_ ppwm_i.u_ppwm.u_mem.memory\[62\] clknet_leaf_42_clk
+ sg13g2_dfrbpq_2
X_2106_ _0534_ _1232_ net512 VPWR VGND sg13g2_nand2_1
XFILLER_36_940 VPWR VGND sg13g2_decap_8
X_2037_ net771 _0484_ _0171_ VPWR VGND sg13g2_nor2b_1
XFILLER_11_807 VPWR VGND sg13g2_fill_2
XFILLER_23_667 VPWR VGND sg13g2_decap_4
XFILLER_23_689 VPWR VGND sg13g2_decap_8
X_2939_ net545 VGND VPWR _0130_ sdr_i.DP_4.matrix\[0\] clknet_leaf_16_clk sg13g2_dfrbpq_1
Xhold351 sdr_i.mac2.sum_lvl1_ff\[8\] VPWR VGND net731 sg13g2_dlygate4sd3_1
Xhold362 _0020_ VPWR VGND net742 sg13g2_dlygate4sd3_1
XFILLER_2_538 VPWR VGND sg13g2_decap_8
Xhold340 _0468_ VPWR VGND net720 sg13g2_dlygate4sd3_1
Xhold373 _0514_ VPWR VGND net753 sg13g2_dlygate4sd3_1
Xhold395 _0031_ VPWR VGND net775 sg13g2_dlygate4sd3_1
Xhold384 sdr_i.mac2.sum_lvl2_ff\[4\] VPWR VGND net764 sg13g2_dlygate4sd3_1
XFILLER_46_759 VPWR VGND sg13g2_decap_8
XFILLER_27_940 VPWR VGND sg13g2_decap_8
XFILLER_26_63 VPWR VGND sg13g2_decap_8
XFILLER_26_74 VPWR VGND sg13g2_fill_1
XFILLER_42_965 VPWR VGND sg13g2_decap_8
XFILLER_41_464 VPWR VGND sg13g2_decap_8
XFILLER_13_144 VPWR VGND sg13g2_fill_1
XFILLER_14_667 VPWR VGND sg13g2_fill_1
XFILLER_42_84 VPWR VGND sg13g2_decap_8
XFILLER_10_895 VPWR VGND sg13g2_decap_8
XFILLER_6_877 VPWR VGND sg13g2_decap_8
XFILLER_5_343 VPWR VGND sg13g2_fill_2
XFILLER_49_553 VPWR VGND sg13g2_decap_8
XFILLER_37_726 VPWR VGND sg13g2_fill_1
XFILLER_36_247 VPWR VGND sg13g2_decap_8
XFILLER_17_472 VPWR VGND sg13g2_decap_4
XFILLER_18_995 VPWR VGND sg13g2_decap_8
XFILLER_17_494 VPWR VGND sg13g2_decap_8
XFILLER_33_965 VPWR VGND sg13g2_decap_8
XFILLER_32_453 VPWR VGND sg13g2_fill_2
X_3052__46 VPWR VGND net46 sg13g2_tiehi
X_2998__152 VPWR VGND net152 sg13g2_tiehi
X_2724_ net419 VPWR _1041_ VGND net474 ppwm_i.u_ppwm.u_mem.memory\[87\] sg13g2_o21ai_1
XFILLER_8_192 VPWR VGND sg13g2_decap_8
X_2655_ VGND VPWR net482 _1156_ _0267_ _1006_ sg13g2_a21oi_1
X_1606_ VPWR _1177_ net345 VGND sg13g2_inv_1
X_2586_ net433 VPWR _0972_ VGND net498 net697 sg13g2_o21ai_1
X_1537_ VPWR _1108_ net649 VGND sg13g2_inv_1
X_3207_ net544 VGND VPWR net758 sdr_i.mac2.sum_lvl1_ff\[1\] clknet_leaf_17_clk sg13g2_dfrbpq_1
XFILLER_28_704 VPWR VGND sg13g2_fill_2
X_3138_ net68 VGND VPWR net718 ppwm_i.u_ppwm.u_mem.bit_count\[2\] clknet_leaf_8_clk
+ sg13g2_dfrbpq_1
XFILLER_27_214 VPWR VGND sg13g2_decap_8
X_3069_ net162 VGND VPWR net593 ppwm_i.u_ppwm.u_mem.memory\[45\] clknet_leaf_38_clk
+ sg13g2_dfrbpq_1
XFILLER_24_910 VPWR VGND sg13g2_decap_8
XFILLER_23_464 VPWR VGND sg13g2_fill_1
XFILLER_24_987 VPWR VGND sg13g2_decap_8
XFILLER_6_118 VPWR VGND sg13g2_decap_8
XFILLER_12_32 VPWR VGND sg13g2_decap_8
XFILLER_3_847 VPWR VGND sg13g2_decap_8
Xhold170 ppwm_i.u_ppwm.u_mem.memory\[27\] VPWR VGND net550 sg13g2_dlygate4sd3_1
Xhold192 ppwm_i.u_ppwm.global_counter\[15\] VPWR VGND net572 sg13g2_dlygate4sd3_1
Xhold181 ppwm_i.u_ppwm.u_mem.memory\[9\] VPWR VGND net561 sg13g2_dlygate4sd3_1
XFILLER_19_704 VPWR VGND sg13g2_fill_1
XFILLER_18_236 VPWR VGND sg13g2_decap_8
XFILLER_34_707 VPWR VGND sg13g2_fill_2
XFILLER_27_781 VPWR VGND sg13g2_decap_8
XFILLER_27_792 VPWR VGND sg13g2_fill_1
XFILLER_14_464 VPWR VGND sg13g2_decap_4
XFILLER_15_976 VPWR VGND sg13g2_decap_8
XFILLER_30_902 VPWR VGND sg13g2_decap_8
XFILLER_14_486 VPWR VGND sg13g2_decap_4
XFILLER_30_979 VPWR VGND sg13g2_decap_8
X_2440_ VGND VPWR _0691_ _0850_ _0855_ _0854_ sg13g2_a21oi_1
XFILLER_6_696 VPWR VGND sg13g2_decap_8
XFILLER_5_151 VPWR VGND sg13g2_decap_8
X_2371_ _0790_ ppwm_i.u_ppwm.global_counter\[15\] net402 VPWR VGND sg13g2_nand2_1
XFILLER_49_350 VPWR VGND sg13g2_decap_8
XFILLER_49_361 VPWR VGND sg13g2_fill_1
XFILLER_25_707 VPWR VGND sg13g2_decap_8
XFILLER_18_770 VPWR VGND sg13g2_decap_4
XFILLER_21_968 VPWR VGND sg13g2_decap_8
XFILLER_20_478 VPWR VGND sg13g2_decap_4
X_2707_ VGND VPWR net477 _1130_ _0293_ _1032_ sg13g2_a21oi_1
X_2638_ net426 VPWR _0998_ VGND net481 net356 sg13g2_o21ai_1
X_2569_ VGND VPWR net497 _1199_ _0224_ _0963_ sg13g2_a21oi_1
XFILLER_28_556 VPWR VGND sg13g2_decap_8
XFILLER_43_526 VPWR VGND sg13g2_decap_8
XFILLER_43_515 VPWR VGND sg13g2_fill_1
Xtiny_wrapper_24 VPWR VGND uo_out[4] sg13g2_tielo
XFILLER_43_548 VPWR VGND sg13g2_decap_8
XFILLER_23_261 VPWR VGND sg13g2_decap_8
XFILLER_12_968 VPWR VGND sg13g2_decap_8
XFILLER_23_53 VPWR VGND sg13g2_decap_8
XFILLER_7_416 VPWR VGND sg13g2_fill_2
XFILLER_3_622 VPWR VGND sg13g2_decap_8
XFILLER_3_677 VPWR VGND sg13g2_decap_4
Xfanout491 net492 net491 VPWR VGND sg13g2_buf_8
Xfanout480 net501 net480 VPWR VGND sg13g2_buf_2
XFILLER_47_854 VPWR VGND sg13g2_decap_8
XFILLER_0_13 VPWR VGND sg13g2_decap_8
XFILLER_46_353 VPWR VGND sg13g2_fill_1
XFILLER_0_68 VPWR VGND sg13g2_decap_8
XFILLER_34_515 VPWR VGND sg13g2_decap_8
XFILLER_34_526 VPWR VGND sg13g2_fill_1
XFILLER_34_537 VPWR VGND sg13g2_fill_1
XFILLER_9_11 VPWR VGND sg13g2_decap_8
XFILLER_9_22 VPWR VGND sg13g2_fill_2
X_1940_ net736 sdr_i.mac1.sum_lvl1_ff\[9\] _0431_ VPWR VGND sg13g2_xor2_1
XFILLER_30_710 VPWR VGND sg13g2_fill_2
XFILLER_14_294 VPWR VGND sg13g2_decap_8
X_1871_ _0403_ _0402_ _0073_ VPWR VGND sg13g2_xor2_1
XFILLER_9_99 VPWR VGND sg13g2_fill_1
XFILLER_7_983 VPWR VGND sg13g2_decap_8
X_2423_ _0839_ ppwm_i.u_ppwm.global_counter\[18\] net402 VPWR VGND sg13g2_nand2_1
XFILLER_9_1024 VPWR VGND sg13g2_decap_4
X_2354_ _0774_ net373 _0773_ VPWR VGND sg13g2_nand2_1
X_2285_ _0708_ ppwm_i.u_ppwm.global_counter\[1\] net398 VPWR VGND sg13g2_nand2_1
XFILLER_49_191 VPWR VGND sg13g2_decap_8
XFILLER_38_854 VPWR VGND sg13g2_decap_8
XFILLER_37_353 VPWR VGND sg13g2_decap_4
XFILLER_21_710 VPWR VGND sg13g2_fill_1
XFILLER_21_721 VPWR VGND sg13g2_decap_4
XFILLER_33_570 VPWR VGND sg13g2_decap_8
XFILLER_5_909 VPWR VGND sg13g2_decap_8
XFILLER_4_419 VPWR VGND sg13g2_decap_8
XFILLER_0_625 VPWR VGND sg13g2_fill_1
XFILLER_0_658 VPWR VGND sg13g2_decap_4
XFILLER_47_128 VPWR VGND sg13g2_fill_1
XFILLER_29_843 VPWR VGND sg13g2_decap_8
XFILLER_44_802 VPWR VGND sg13g2_decap_8
XFILLER_18_97 VPWR VGND sg13g2_decap_4
XFILLER_28_386 VPWR VGND sg13g2_decap_8
XFILLER_44_879 VPWR VGND sg13g2_decap_8
XFILLER_31_507 VPWR VGND sg13g2_fill_2
XFILLER_15_1018 VPWR VGND sg13g2_decap_8
XFILLER_8_747 VPWR VGND sg13g2_decap_8
XFILLER_8_769 VPWR VGND sg13g2_decap_8
XFILLER_4_986 VPWR VGND sg13g2_decap_8
XFILLER_47_640 VPWR VGND sg13g2_decap_8
X_2070_ ppwm_i.u_ppwm.u_pwm.counter\[4\] ppwm_i.u_ppwm.u_pwm.counter\[3\] net565 _0506_
+ VPWR VGND ppwm_i.u_ppwm.u_pwm.counter\[2\] sg13g2_nand4_1
XFILLER_34_323 VPWR VGND sg13g2_decap_8
XFILLER_35_857 VPWR VGND sg13g2_decap_8
XFILLER_22_507 VPWR VGND sg13g2_decap_8
X_2972_ net436 VGND VPWR net573 ppwm_i.u_ppwm.global_counter\[15\] clknet_leaf_26_clk
+ sg13g2_dfrbpq_2
X_1923_ net291 sdr_i.mac2.sum_lvl1_ff\[8\] _0013_ VPWR VGND sg13g2_xor2_1
XFILLER_30_540 VPWR VGND sg13g2_fill_1
X_1854_ _0392_ net294 net245 VPWR VGND sg13g2_nand2_1
X_1785_ VPWR VGND _1351_ _1231_ _1349_ _1347_ _1352_ _1348_ sg13g2_a221oi_1
X_2406_ _0823_ _0822_ net376 _0676_ ppwm_i.u_ppwm.u_ex.reg_value_q\[7\] VPWR VGND
+ sg13g2_a22oi_1
X_2337_ _0757_ _0716_ _0733_ VPWR VGND sg13g2_nand2_1
X_2268_ net396 _0652_ _0691_ VPWR VGND sg13g2_and2_1
XFILLER_38_640 VPWR VGND sg13g2_decap_8
XFILLER_38_662 VPWR VGND sg13g2_decap_4
XFILLER_38_673 VPWR VGND sg13g2_fill_1
XFILLER_26_857 VPWR VGND sg13g2_decap_8
X_2199_ _1229_ _0624_ ppwm_i.u_ppwm.u_ex.reg_value_q\[0\] _0625_ VPWR VGND sg13g2_nand3_1
XFILLER_13_507 VPWR VGND sg13g2_decap_8
XFILLER_25_345 VPWR VGND sg13g2_decap_8
XFILLER_40_337 VPWR VGND sg13g2_fill_1
XFILLER_21_540 VPWR VGND sg13g2_decap_8
XFILLER_20_32 VPWR VGND sg13g2_fill_2
XFILLER_1_912 VPWR VGND sg13g2_decap_8
XFILLER_49_916 VPWR VGND sg13g2_decap_8
Xhold30 sdr_i.mac1.products_ff\[102\] VPWR VGND net230 sg13g2_dlygate4sd3_1
XFILLER_0_466 VPWR VGND sg13g2_decap_8
XFILLER_1_989 VPWR VGND sg13g2_decap_8
Xhold41 sdr_i.DP_2.matrix\[19\] VPWR VGND net241 sg13g2_dlygate4sd3_1
Xhold52 sdr_i.DP_2.matrix\[1\] VPWR VGND net252 sg13g2_dlygate4sd3_1
Xhold63 sdr_i.DP_1.matrix\[37\] VPWR VGND net263 sg13g2_dlygate4sd3_1
Xhold74 sdr_i.DP_2.matrix\[9\] VPWR VGND net274 sg13g2_dlygate4sd3_1
Xhold96 sdr_i.DP_4.matrix\[9\] VPWR VGND net296 sg13g2_dlygate4sd3_1
Xhold85 sdr_i.DP_1.matrix\[9\] VPWR VGND net285 sg13g2_dlygate4sd3_1
XFILLER_29_651 VPWR VGND sg13g2_fill_2
XFILLER_44_610 VPWR VGND sg13g2_fill_2
XFILLER_45_95 VPWR VGND sg13g2_decap_4
XFILLER_31_304 VPWR VGND sg13g2_decap_8
XFILLER_32_849 VPWR VGND sg13g2_decap_8
XFILLER_40_871 VPWR VGND sg13g2_decap_8
XFILLER_8_544 VPWR VGND sg13g2_decap_8
X_1570_ VPWR _1141_ net574 VGND sg13g2_inv_1
XFILLER_6_67 VPWR VGND sg13g2_fill_2
XFILLER_20_4 VPWR VGND sg13g2_decap_8
X_3171_ net196 VGND VPWR _0004_ ppwm_i.u_ppwm.mem_write_done clknet_leaf_8_clk sg13g2_dfrbpq_2
X_2122_ _0548_ ppwm_i.u_ppwm.u_ex.state_q\[2\] _0547_ VPWR VGND sg13g2_nand2_1
XFILLER_48_982 VPWR VGND sg13g2_decap_8
XFILLER_47_470 VPWR VGND sg13g2_decap_8
X_2053_ _0495_ _1241_ net410 VPWR VGND sg13g2_nand2_1
XFILLER_19_183 VPWR VGND sg13g2_decap_8
XFILLER_22_315 VPWR VGND sg13g2_decap_8
X_2955_ net533 VGND VPWR _0146_ sdr_i.DP_4.matrix\[72\] clknet_leaf_1_clk sg13g2_dfrbpq_1
X_2886_ net523 VGND VPWR _0077_ sdr_i.DP_1.matrix\[1\] clknet_leaf_0_clk sg13g2_dfrbpq_1
X_1906_ net261 sdr_i.mac1.sum_lvl3_ff\[2\] _0030_ VPWR VGND sg13g2_xor2_1
X_1837_ _0381_ sdr_i.total_sum1\[2\] sdr_i.mac2.total_sum\[2\] VPWR VGND sg13g2_xnor2_1
X_1768_ _1335_ net448 _1180_ net453 _1159_ VPWR VGND sg13g2_a22oi_1
X_1699_ VGND VPWR _1235_ _1267_ _0003_ _1268_ sg13g2_a21oi_1
XFILLER_39_960 VPWR VGND sg13g2_decap_8
XFILLER_14_805 VPWR VGND sg13g2_decap_8
XFILLER_25_120 VPWR VGND sg13g2_decap_8
XFILLER_40_101 VPWR VGND sg13g2_decap_8
XFILLER_5_514 VPWR VGND sg13g2_fill_2
XFILLER_31_42 VPWR VGND sg13g2_decap_8
Xoutput7 net7 uio_oe[3] VPWR VGND sg13g2_buf_1
XFILLER_49_713 VPWR VGND sg13g2_decap_8
XFILLER_1_786 VPWR VGND sg13g2_decap_8
XFILLER_0_285 VPWR VGND sg13g2_decap_4
XFILLER_45_996 VPWR VGND sg13g2_decap_8
X_3049__52 VPWR VGND net52 sg13g2_tiehi
XFILLER_13_871 VPWR VGND sg13g2_decap_8
XFILLER_31_145 VPWR VGND sg13g2_fill_1
X_2740_ net414 VPWR _1049_ VGND net468 net597 sg13g2_o21ai_1
X_2671_ VGND VPWR net465 _1148_ _0275_ _1014_ sg13g2_a21oi_1
XFILLER_8_385 VPWR VGND sg13g2_fill_1
X_1622_ VPWR _1193_ net646 VGND sg13g2_inv_1
X_1553_ VPWR _1124_ net358 VGND sg13g2_inv_1
X_3223_ net532 VGND VPWR net211 sdr_i.mac2.sum_lvl2_ff\[8\] clknet_leaf_6_clk sg13g2_dfrbpq_1
X_3154_ net531 VGND VPWR _0048_ sdr_i.mac1.products_ff\[85\] clknet_leaf_44_clk sg13g2_dfrbpq_1
X_3085_ net98 VGND VPWR _0276_ ppwm_i.u_ppwm.u_mem.memory\[61\] clknet_leaf_42_clk
+ sg13g2_dfrbpq_1
X_2105_ _0533_ net511 net451 VPWR VGND sg13g2_xnor2_1
X_2036_ VGND VPWR _1245_ net409 _0484_ net456 sg13g2_a21oi_1
XFILLER_36_996 VPWR VGND sg13g2_decap_8
XFILLER_23_646 VPWR VGND sg13g2_decap_8
X_2938_ net527 VGND VPWR _0129_ sdr_i.DP_3.matrix\[73\] clknet_leaf_4_clk sg13g2_dfrbpq_1
X_2869_ net296 _0132_ VPWR VGND sg13g2_buf_1
XFILLER_11_1021 VPWR VGND sg13g2_decap_8
Xhold352 _0014_ VPWR VGND net732 sg13g2_dlygate4sd3_1
XFILLER_7_8 VPWR VGND sg13g2_fill_1
Xhold341 _0160_ VPWR VGND net721 sg13g2_dlygate4sd3_1
Xhold330 ppwm_i.u_ppwm.global_counter\[2\] VPWR VGND net710 sg13g2_dlygate4sd3_1
Xhold363 sdr_i.mac1.sum_lvl2_ff\[1\] VPWR VGND net743 sg13g2_dlygate4sd3_1
Xhold374 sdr_i.mac2.products_ff\[69\] VPWR VGND net754 sg13g2_dlygate4sd3_1
Xhold385 _0010_ VPWR VGND net765 sg13g2_dlygate4sd3_1
Xhold396 ppwm_i.u_ppwm.global_counter\[13\] VPWR VGND net776 sg13g2_dlygate4sd3_1
XFILLER_18_429 VPWR VGND sg13g2_decap_8
XFILLER_26_462 VPWR VGND sg13g2_fill_1
XFILLER_26_473 VPWR VGND sg13g2_decap_8
XFILLER_27_996 VPWR VGND sg13g2_decap_8
Xclkbuf_3_6__f_clk clknet_0_clk clknet_3_6__leaf_clk VPWR VGND sg13g2_buf_8
XFILLER_42_944 VPWR VGND sg13g2_decap_8
XFILLER_9_116 VPWR VGND sg13g2_fill_2
XFILLER_14_679 VPWR VGND sg13g2_decap_8
XFILLER_42_30 VPWR VGND sg13g2_fill_1
XFILLER_10_830 VPWR VGND sg13g2_fill_1
XFILLER_42_63 VPWR VGND sg13g2_decap_8
XFILLER_10_874 VPWR VGND sg13g2_decap_8
XFILLER_6_856 VPWR VGND sg13g2_decap_8
XFILLER_49_532 VPWR VGND sg13g2_decap_8
XFILLER_1_594 VPWR VGND sg13g2_decap_8
XFILLER_49_576 VPWR VGND sg13g2_fill_1
XFILLER_3_1008 VPWR VGND sg13g2_decap_8
XFILLER_37_705 VPWR VGND sg13g2_decap_8
XFILLER_18_974 VPWR VGND sg13g2_decap_8
XFILLER_45_793 VPWR VGND sg13g2_decap_8
XFILLER_44_270 VPWR VGND sg13g2_fill_2
XFILLER_33_944 VPWR VGND sg13g2_decap_8
X_2723_ VGND VPWR net475 _1122_ _0301_ _1040_ sg13g2_a21oi_1
XFILLER_8_171 VPWR VGND sg13g2_decap_8
XFILLER_9_672 VPWR VGND sg13g2_fill_1
X_2654_ net425 VPWR _1006_ VGND net482 net657 sg13g2_o21ai_1
X_1605_ VPWR _1176_ net688 VGND sg13g2_inv_1
X_2585_ VGND VPWR net486 _1191_ _0232_ _0971_ sg13g2_a21oi_1
X_1536_ VPWR _1107_ net625 VGND sg13g2_inv_1
XFILLER_41_1025 VPWR VGND sg13g2_decap_4
X_3206_ net544 VGND VPWR net255 sdr_i.mac2.sum_lvl1_ff\[0\] clknet_leaf_17_clk sg13g2_dfrbpq_1
X_3137_ net100 VGND VPWR net341 ppwm_i.u_ppwm.u_mem.bit_count\[1\] clknet_leaf_8_clk
+ sg13g2_dfrbpq_1
XFILLER_28_727 VPWR VGND sg13g2_fill_1
X_3068_ net166 VGND VPWR _0259_ ppwm_i.u_ppwm.u_mem.memory\[44\] clknet_leaf_35_clk
+ sg13g2_dfrbpq_2
X_2019_ _0165_ _1253_ _0472_ VPWR VGND sg13g2_xnor2_1
XFILLER_23_421 VPWR VGND sg13g2_fill_2
XFILLER_36_793 VPWR VGND sg13g2_decap_8
XFILLER_24_966 VPWR VGND sg13g2_decap_8
XFILLER_11_649 VPWR VGND sg13g2_fill_2
XFILLER_10_137 VPWR VGND sg13g2_fill_1
XFILLER_7_609 VPWR VGND sg13g2_decap_8
XFILLER_12_11 VPWR VGND sg13g2_decap_8
X_3003__142 VPWR VGND net142 sg13g2_tiehi
XFILLER_12_77 VPWR VGND sg13g2_decap_8
XFILLER_3_826 VPWR VGND sg13g2_decap_8
Xhold160 ppwm_i.u_ppwm.u_mem.memory\[31\] VPWR VGND net360 sg13g2_dlygate4sd3_1
X_3114__104 VPWR VGND net104 sg13g2_tiehi
Xhold171 _0241_ VPWR VGND net551 sg13g2_dlygate4sd3_1
Xhold193 _0163_ VPWR VGND net573 sg13g2_dlygate4sd3_1
XFILLER_2_369 VPWR VGND sg13g2_fill_1
Xhold182 _0223_ VPWR VGND net562 sg13g2_dlygate4sd3_1
XFILLER_18_215 VPWR VGND sg13g2_decap_8
XFILLER_19_727 VPWR VGND sg13g2_decap_4
XFILLER_19_738 VPWR VGND sg13g2_fill_2
XFILLER_37_41 VPWR VGND sg13g2_decap_8
XFILLER_37_30 VPWR VGND sg13g2_fill_2
XFILLER_46_568 VPWR VGND sg13g2_fill_1
XFILLER_46_557 VPWR VGND sg13g2_decap_8
XFILLER_14_421 VPWR VGND sg13g2_fill_2
XFILLER_15_955 VPWR VGND sg13g2_decap_8
XFILLER_18_1016 VPWR VGND sg13g2_decap_8
XFILLER_18_1027 VPWR VGND sg13g2_fill_2
XFILLER_30_958 VPWR VGND sg13g2_decap_8
XFILLER_6_620 VPWR VGND sg13g2_decap_8
XFILLER_6_675 VPWR VGND sg13g2_decap_8
X_2370_ VPWR VGND _0783_ _0788_ _0782_ net379 _0789_ _0746_ sg13g2_a221oi_1
XFILLER_21_947 VPWR VGND sg13g2_decap_8
X_2706_ net417 VPWR _1032_ VGND net477 ppwm_i.u_ppwm.u_mem.memory\[78\] sg13g2_o21ai_1
X_2637_ VGND VPWR net488 _1165_ _0258_ _0997_ sg13g2_a21oi_1
XFILLER_0_829 VPWR VGND sg13g2_decap_8
X_2568_ net431 VPWR _0963_ VGND net489 net561 sg13g2_o21ai_1
X_2499_ _0908_ ppwm_i.u_ppwm.u_ex.reg_value_q\[5\] net393 VPWR VGND sg13g2_xnor2_1
Xtiny_wrapper_25 VPWR VGND uo_out[5] sg13g2_tielo
XFILLER_15_207 VPWR VGND sg13g2_decap_8
XFILLER_11_402 VPWR VGND sg13g2_fill_1
XFILLER_12_947 VPWR VGND sg13g2_decap_8
XFILLER_24_796 VPWR VGND sg13g2_fill_2
XFILLER_23_32 VPWR VGND sg13g2_decap_8
XFILLER_7_439 VPWR VGND sg13g2_fill_1
XFILLER_11_468 VPWR VGND sg13g2_decap_8
XFILLER_3_2 VPWR VGND sg13g2_fill_1
XFILLER_47_833 VPWR VGND sg13g2_decap_8
Xfanout481 net482 net481 VPWR VGND sg13g2_buf_8
Xfanout470 net501 net470 VPWR VGND sg13g2_buf_2
Xfanout492 net496 net492 VPWR VGND sg13g2_buf_8
XFILLER_0_36 VPWR VGND sg13g2_fill_2
XFILLER_14_273 VPWR VGND sg13g2_decap_4
XFILLER_42_593 VPWR VGND sg13g2_decap_8
X_1870_ _0403_ net272 net224 VPWR VGND sg13g2_nand2_1
XFILLER_31_1024 VPWR VGND sg13g2_decap_4
XFILLER_7_962 VPWR VGND sg13g2_decap_8
XFILLER_6_472 VPWR VGND sg13g2_decap_4
XFILLER_6_450 VPWR VGND sg13g2_fill_1
X_2422_ _0838_ _0836_ _0837_ _0806_ _0653_ VPWR VGND sg13g2_a22oi_1
XFILLER_9_1003 VPWR VGND sg13g2_decap_8
X_2353_ _0773_ _0772_ net376 net375 net818 VPWR VGND sg13g2_a22oi_1
X_2284_ net385 _0674_ _0707_ VPWR VGND sg13g2_nor2_1
XFILLER_49_170 VPWR VGND sg13g2_decap_8
XFILLER_38_833 VPWR VGND sg13g2_decap_8
XFILLER_25_505 VPWR VGND sg13g2_decap_8
XFILLER_37_387 VPWR VGND sg13g2_fill_2
XFILLER_40_519 VPWR VGND sg13g2_decap_4
XFILLER_33_582 VPWR VGND sg13g2_decap_8
XFILLER_21_744 VPWR VGND sg13g2_decap_4
XFILLER_21_788 VPWR VGND sg13g2_fill_2
X_1999_ _0462_ net654 _0155_ VPWR VGND sg13g2_xor2_1
XFILLER_20_276 VPWR VGND sg13g2_decap_8
XFILLER_0_604 VPWR VGND sg13g2_decap_8
XFILLER_0_637 VPWR VGND sg13g2_decap_8
XFILLER_47_107 VPWR VGND sg13g2_decap_8
XFILLER_29_822 VPWR VGND sg13g2_decap_8
XFILLER_28_365 VPWR VGND sg13g2_decap_8
XFILLER_29_899 VPWR VGND sg13g2_decap_8
XFILLER_44_858 VPWR VGND sg13g2_decap_8
XFILLER_43_357 VPWR VGND sg13g2_decap_4
XFILLER_12_711 VPWR VGND sg13g2_decap_4
XFILLER_11_210 VPWR VGND sg13g2_fill_2
XFILLER_34_75 VPWR VGND sg13g2_decap_4
XFILLER_11_298 VPWR VGND sg13g2_decap_8
XFILLER_3_420 VPWR VGND sg13g2_fill_2
XFILLER_4_965 VPWR VGND sg13g2_decap_8
XFILLER_38_107 VPWR VGND sg13g2_fill_2
XFILLER_46_140 VPWR VGND sg13g2_fill_2
XFILLER_35_836 VPWR VGND sg13g2_decap_8
XFILLER_43_880 VPWR VGND sg13g2_decap_8
X_2971_ net437 VGND VPWR _0162_ ppwm_i.u_ppwm.global_counter\[14\] clknet_leaf_26_clk
+ sg13g2_dfrbpq_2
XFILLER_42_390 VPWR VGND sg13g2_fill_1
X_1922_ _0422_ net731 net291 VPWR VGND sg13g2_nand2_1
XFILLER_15_593 VPWR VGND sg13g2_decap_8
X_1853_ _0391_ _0390_ _0059_ VPWR VGND sg13g2_xor2_1
X_3103__191 VPWR VGND net191 sg13g2_tiehi
X_1784_ VPWR VGND ppwm_i.u_ppwm.u_mem.memory\[104\] _1350_ net438 ppwm_i.u_ppwm.u_mem.memory\[97\]
+ _1351_ net442 sg13g2_a221oi_1
X_2405_ ppwm_i.u_ppwm.global_counter\[17\] ppwm_i.u_ppwm.global_counter\[7\] net399
+ _0822_ VPWR VGND sg13g2_mux2_1
XFILLER_41_0 VPWR VGND sg13g2_fill_2
X_2336_ _0714_ _0716_ _0733_ _0734_ _0756_ VPWR VGND sg13g2_and4_1
X_2267_ net457 _0688_ _0690_ _0195_ VPWR VGND sg13g2_nor3_1
XFILLER_26_825 VPWR VGND sg13g2_fill_2
XFILLER_26_836 VPWR VGND sg13g2_decap_8
X_2198_ _0624_ net507 ppwm_i.u_ppwm.u_ex.reg_value_q\[1\] VPWR VGND sg13g2_nand2b_1
XFILLER_38_685 VPWR VGND sg13g2_fill_2
XFILLER_38_1008 VPWR VGND sg13g2_decap_8
XFILLER_25_379 VPWR VGND sg13g2_decap_8
XFILLER_40_349 VPWR VGND sg13g2_decap_8
XFILLER_5_707 VPWR VGND sg13g2_decap_4
XFILLER_4_206 VPWR VGND sg13g2_fill_2
XFILLER_20_11 VPWR VGND sg13g2_decap_8
XFILLER_20_22 VPWR VGND sg13g2_fill_2
XFILLER_0_423 VPWR VGND sg13g2_decap_4
XFILLER_1_968 VPWR VGND sg13g2_decap_8
XFILLER_29_20 VPWR VGND sg13g2_fill_2
Xhold31 _0021_ VPWR VGND net231 sg13g2_dlygate4sd3_1
Xhold20 sdr_i.DP_1.matrix\[10\] VPWR VGND net220 sg13g2_dlygate4sd3_1
Xhold64 sdr_i.DP_1.matrix\[55\] VPWR VGND net264 sg13g2_dlygate4sd3_1
XFILLER_29_75 VPWR VGND sg13g2_decap_8
Xhold42 sdr_i.DP_3.matrix\[55\] VPWR VGND net242 sg13g2_dlygate4sd3_1
Xhold53 sdr_i.DP_4.matrix\[64\] VPWR VGND net253 sg13g2_dlygate4sd3_1
Xhold86 sdr_i.DP_2.matrix\[63\] VPWR VGND net286 sg13g2_dlygate4sd3_1
XFILLER_17_803 VPWR VGND sg13g2_decap_8
Xhold75 sdr_i.DP_2.matrix\[27\] VPWR VGND net275 sg13g2_dlygate4sd3_1
Xhold97 sdr_i.mac2.sum_lvl2_ff\[0\] VPWR VGND net297 sg13g2_dlygate4sd3_1
XFILLER_29_685 VPWR VGND sg13g2_decap_8
X_2985__177 VPWR VGND net177 sg13g2_tiehi
XFILLER_45_74 VPWR VGND sg13g2_decap_8
XFILLER_16_335 VPWR VGND sg13g2_decap_8
XFILLER_17_858 VPWR VGND sg13g2_decap_4
XFILLER_44_699 VPWR VGND sg13g2_fill_1
XFILLER_25_880 VPWR VGND sg13g2_decap_8
XFILLER_32_828 VPWR VGND sg13g2_decap_8
XFILLER_24_390 VPWR VGND sg13g2_decap_4
XFILLER_40_850 VPWR VGND sg13g2_decap_8
XFILLER_3_272 VPWR VGND sg13g2_decap_4
XFILLER_6_1028 VPWR VGND sg13g2_fill_1
XFILLER_6_1017 VPWR VGND sg13g2_decap_8
X_3170_ net195 VGND VPWR _0003_ ppwm_i.u_ppwm.u_mem.state_q\[0\] clknet_leaf_21_clk
+ sg13g2_dfrbpq_1
XFILLER_0_990 VPWR VGND sg13g2_decap_8
X_2121_ net395 _0365_ _0547_ VPWR VGND sg13g2_and2_1
XFILLER_48_961 VPWR VGND sg13g2_decap_8
X_2052_ net456 net803 _0176_ VPWR VGND sg13g2_nor2_1
XFILLER_47_460 VPWR VGND sg13g2_fill_1
XFILLER_35_644 VPWR VGND sg13g2_decap_4
XFILLER_22_305 VPWR VGND sg13g2_fill_1
X_2954_ net538 VGND VPWR _0145_ sdr_i.DP_4.matrix\[64\] clknet_leaf_14_clk sg13g2_dfrbpq_1
X_2885_ net523 VGND VPWR _0076_ sdr_i.DP_1.matrix\[0\] clknet_leaf_0_clk sg13g2_dfrbpq_1
X_1905_ _0412_ net774 net261 VPWR VGND sg13g2_nand2_1
X_1836_ _0380_ sdr_i.total_sum1\[2\] sdr_i.mac2.total_sum\[2\] VPWR VGND sg13g2_nand2_1
X_1767_ VPWR VGND _1194_ _1332_ net440 _1201_ _1334_ net444 sg13g2_a221oi_1
X_1698_ net3 net324 net457 _1268_ VPWR VGND sg13g2_nor3_1
XFILLER_44_1012 VPWR VGND sg13g2_decap_8
X_2319_ _0740_ net390 net386 VPWR VGND sg13g2_nand2_1
XFILLER_26_600 VPWR VGND sg13g2_decap_4
XFILLER_26_611 VPWR VGND sg13g2_fill_2
XFILLER_38_460 VPWR VGND sg13g2_fill_1
XFILLER_26_677 VPWR VGND sg13g2_decap_8
XFILLER_41_658 VPWR VGND sg13g2_decap_8
XFILLER_41_636 VPWR VGND sg13g2_decap_8
XFILLER_15_55 VPWR VGND sg13g2_decap_8
XFILLER_40_157 VPWR VGND sg13g2_decap_8
XFILLER_15_88 VPWR VGND sg13g2_decap_8
XFILLER_21_393 VPWR VGND sg13g2_decap_8
XFILLER_31_21 VPWR VGND sg13g2_decap_8
Xoutput8 net8 uio_oe[4] VPWR VGND sg13g2_buf_1
Xoutput10 net10 uio_oe[6] VPWR VGND sg13g2_buf_1
X_3013__122 VPWR VGND net122 sg13g2_tiehi
XFILLER_1_765 VPWR VGND sg13g2_decap_8
XFILLER_49_769 VPWR VGND sg13g2_decap_8
XFILLER_48_279 VPWR VGND sg13g2_decap_4
XFILLER_29_482 VPWR VGND sg13g2_decap_4
XFILLER_29_493 VPWR VGND sg13g2_fill_2
XFILLER_45_975 VPWR VGND sg13g2_decap_8
XFILLER_44_463 VPWR VGND sg13g2_decap_8
XFILLER_44_452 VPWR VGND sg13g2_fill_1
XFILLER_17_677 VPWR VGND sg13g2_decap_8
XFILLER_31_102 VPWR VGND sg13g2_decap_8
XFILLER_13_850 VPWR VGND sg13g2_fill_1
XFILLER_9_843 VPWR VGND sg13g2_fill_2
X_2670_ net412 VPWR _1014_ VGND net465 ppwm_i.u_ppwm.u_mem.memory\[60\] sg13g2_o21ai_1
XFILLER_9_898 VPWR VGND sg13g2_decap_8
X_1621_ VPWR _1192_ net352 VGND sg13g2_inv_1
X_1552_ VPWR _1123_ net634 VGND sg13g2_inv_1
X_3222_ net200 VGND VPWR _0002_ ppwm_i.u_ppwm.u_ex.state_q\[2\] clknet_leaf_39_clk
+ sg13g2_dfrbpq_2
X_3153_ net529 VGND VPWR _0059_ sdr_i.mac1.products_ff\[69\] clknet_leaf_43_clk sg13g2_dfrbpq_1
X_2104_ _0532_ net511 net389 VPWR VGND sg13g2_xnor2_1
X_3084_ net102 VGND VPWR net591 ppwm_i.u_ppwm.u_mem.memory\[60\] clknet_leaf_42_clk
+ sg13g2_dfrbpq_1
X_2035_ net770 net411 _0483_ VPWR VGND sg13g2_nor2_1
XFILLER_35_474 VPWR VGND sg13g2_decap_8
XFILLER_36_975 VPWR VGND sg13g2_decap_8
XFILLER_23_636 VPWR VGND sg13g2_decap_4
XFILLER_35_485 VPWR VGND sg13g2_fill_1
XFILLER_11_809 VPWR VGND sg13g2_fill_1
XFILLER_22_146 VPWR VGND sg13g2_decap_8
XFILLER_22_157 VPWR VGND sg13g2_fill_2
X_2937_ net533 VGND VPWR _0128_ sdr_i.DP_3.matrix\[72\] clknet_leaf_5_clk sg13g2_dfrbpq_1
XFILLER_31_691 VPWR VGND sg13g2_fill_1
X_2868_ net247 _0131_ VPWR VGND sg13g2_buf_1
XFILLER_11_1000 VPWR VGND sg13g2_decap_8
Xhold320 ppwm_i.u_ppwm.u_mem.memory\[81\] VPWR VGND net700 sg13g2_dlygate4sd3_1
X_1819_ _0368_ _0367_ _1279_ VPWR VGND sg13g2_nand2b_1
X_2799_ _1084_ _1246_ ppwm_i.u_ppwm.u_pwm.counter\[2\] _1245_ ppwm_i.u_ppwm.u_pwm.counter\[3\]
+ VPWR VGND sg13g2_a22oi_1
Xhold353 ppwm_i.u_ppwm.u_mem.memory\[21\] VPWR VGND net733 sg13g2_dlygate4sd3_1
Xhold331 _0150_ VPWR VGND net711 sg13g2_dlygate4sd3_1
Xhold342 sdr_i.mac2.sum_lvl1_ff\[17\] VPWR VGND net722 sg13g2_dlygate4sd3_1
Xhold386 ppwm_i.u_ppwm.u_pwm.counter\[8\] VPWR VGND net766 sg13g2_dlygate4sd3_1
Xhold364 _0435_ VPWR VGND net744 sg13g2_dlygate4sd3_1
Xhold375 _0409_ VPWR VGND net755 sg13g2_dlygate4sd3_1
Xhold397 _0161_ VPWR VGND net777 sg13g2_dlygate4sd3_1
XFILLER_19_909 VPWR VGND sg13g2_decap_8
XFILLER_46_728 VPWR VGND sg13g2_fill_2
XFILLER_45_249 VPWR VGND sg13g2_decap_8
XFILLER_26_32 VPWR VGND sg13g2_decap_8
XFILLER_42_923 VPWR VGND sg13g2_decap_8
XFILLER_14_603 VPWR VGND sg13g2_decap_4
XFILLER_27_975 VPWR VGND sg13g2_decap_8
XFILLER_41_422 VPWR VGND sg13g2_decap_8
XFILLER_14_636 VPWR VGND sg13g2_decap_8
XFILLER_41_499 VPWR VGND sg13g2_fill_1
XFILLER_6_835 VPWR VGND sg13g2_decap_8
XFILLER_5_345 VPWR VGND sg13g2_fill_1
XFILLER_3_69 VPWR VGND sg13g2_decap_8
XFILLER_1_573 VPWR VGND sg13g2_decap_8
XFILLER_49_588 VPWR VGND sg13g2_decap_8
XFILLER_18_953 VPWR VGND sg13g2_decap_8
XFILLER_45_772 VPWR VGND sg13g2_decap_8
XFILLER_33_923 VPWR VGND sg13g2_decap_8
XFILLER_32_411 VPWR VGND sg13g2_decap_4
XFILLER_32_488 VPWR VGND sg13g2_fill_1
XFILLER_34_1022 VPWR VGND sg13g2_decap_8
X_2722_ net419 VPWR _1040_ VGND net475 ppwm_i.u_ppwm.u_mem.memory\[86\] sg13g2_o21ai_1
X_2653_ VGND VPWR net481 _1157_ _0266_ _1005_ sg13g2_a21oi_1
X_1604_ VPWR _1175_ net675 VGND sg13g2_inv_1
X_2584_ net427 VPWR _0971_ VGND net486 net352 sg13g2_o21ai_1