*SPEF "ieee 1481-1999"
*DESIGN "heichips25_ppwm"
*DATE "06:23:32 Thursday August 21, 2025"
*VENDOR "The OpenROAD Project"
*PROGRAM "OpenROAD"
*VERSION "341650e72dad0dc8571822ff8c5d9c5e365327f7"
*DESIGN_FLOW "NAME_SCOPE LOCAL" "PIN_CAP NONE"
*DIVIDER /
*DELIMITER :
*BUS_DELIMITER []
*T_UNIT 1 NS
*C_UNIT 1 PF
*R_UNIT 1 OHM
*L_UNIT 1 HENRY

*NAME_MAP
*3 clk
*4 ena
*5 rst_n
*6 ui_in[0]
*7 ui_in[1]
*8 ui_in[2]
*9 ui_in[3]
*10 ui_in[4]
*11 ui_in[5]
*12 ui_in[6]
*13 ui_in[7]
*14 uio_in[0]
*15 uio_in[1]
*16 uio_in[2]
*17 uio_in[3]
*18 uio_in[4]
*19 uio_in[5]
*20 uio_in[6]
*21 uio_in[7]
*22 net3
*23 net4
*24 net5
*25 net6
*26 net7
*27 net8
*28 net9
*29 net10
*30 net11
*31 net12
*32 net13
*33 net14
*34 net15
*35 net16
*36 net17
*37 net18
*38 uo_out[0]
*39 net19
*40 net20
*41 net21
*42 net22
*43 net23
*44 net24
*45 net25
*46 clknet_0_clk
*47 clknet_4_0_0_clk
*48 clknet_4_10_0_clk
*49 clknet_4_11_0_clk
*50 clknet_4_12_0_clk
*51 clknet_4_13_0_clk
*52 clknet_4_14_0_clk
*53 clknet_4_15_0_clk
*54 clknet_4_1_0_clk
*55 clknet_4_2_0_clk
*56 clknet_4_3_0_clk
*57 clknet_4_4_0_clk
*58 clknet_4_5_0_clk
*59 clknet_4_6_0_clk
*60 clknet_4_7_0_clk
*61 clknet_4_8_0_clk
*62 clknet_4_9_0_clk
*63 clknet_5_0__leaf_clk
*64 clknet_5_10__leaf_clk
*65 clknet_5_11__leaf_clk
*66 clknet_5_12__leaf_clk
*67 clknet_5_13__leaf_clk
*68 clknet_5_14__leaf_clk
*69 clknet_5_15__leaf_clk
*70 clknet_5_16__leaf_clk
*71 clknet_5_17__leaf_clk
*72 clknet_5_18__leaf_clk
*73 clknet_5_19__leaf_clk
*74 clknet_5_1__leaf_clk
*75 clknet_5_20__leaf_clk
*76 clknet_5_21__leaf_clk
*77 clknet_5_22__leaf_clk
*78 clknet_5_23__leaf_clk
*79 clknet_5_24__leaf_clk
*80 clknet_5_25__leaf_clk
*81 clknet_5_26__leaf_clk
*82 clknet_5_27__leaf_clk
*83 clknet_5_28__leaf_clk
*84 clknet_5_29__leaf_clk
*85 clknet_5_2__leaf_clk
*86 clknet_5_30__leaf_clk
*87 clknet_5_31__leaf_clk
*88 clknet_5_3__leaf_clk
*89 clknet_5_4__leaf_clk
*90 clknet_5_5__leaf_clk
*91 clknet_5_6__leaf_clk
*92 clknet_5_7__leaf_clk
*93 clknet_5_8__leaf_clk
*94 clknet_5_9__leaf_clk
*95 net1
*96 net100
*97 net101
*98 net102
*99 net103
*100 net104
*101 net105
*102 net106
*103 net107
*104 net108
*105 net109
*106 net110
*107 net111
*108 net112
*109 net113
*110 net114
*111 net115
*112 net116
*113 net117
*114 net118
*115 net119
*116 net120
*117 net121
*118 net122
*119 net123
*120 net124
*121 net125
*122 net126
*123 net127
*124 net128
*125 net129
*126 net130
*127 net131
*128 net132
*129 net133
*130 net134
*131 net135
*132 net136
*133 net137
*134 net138
*135 net139
*136 net140
*137 net141
*138 net142
*139 net143
*140 net144
*141 net145
*142 net146
*143 net147
*144 net148
*145 net149
*146 net150
*147 net151
*148 net152
*149 net153
*150 net154
*151 net155
*152 net156
*153 net157
*154 net158
*155 net159
*156 net160
*157 net161
*158 net162
*159 net163
*160 net164
*161 net165
*162 net166
*163 net167
*164 net168
*165 net169
*166 net170
*167 net171
*168 net172
*169 net173
*170 net174
*171 net175
*172 net176
*173 net177
*174 net178
*175 net179
*176 net180
*177 net181
*178 net182
*179 net183
*180 net184
*181 net185
*182 net186
*183 net187
*184 net188
*185 net189
*186 net190
*187 net191
*188 net192
*189 net193
*190 net194
*191 net195
*192 net196
*193 net197
*194 net198
*195 net199
*196 net2
*197 net200
*198 net201
*199 net202
*200 net203
*201 net204
*202 net205
*203 net206
*204 net207
*205 net208
*206 net209
*207 net210
*208 net211
*209 net212
*210 net213
*211 net214
*212 net215
*213 net216
*214 net217
*215 net218
*216 net219
*217 net220
*218 net221
*219 net222
*220 net223
*221 net224
*222 net225
*223 net226
*224 net227
*225 net228
*226 net229
*227 net230
*228 net231
*229 net232
*230 net233
*231 net234
*232 net235
*233 net236
*234 net237
*235 net238
*236 net239
*237 net240
*238 net241
*239 net242
*240 net243
*241 net244
*242 net245
*243 net246
*244 net247
*245 net248
*246 net249
*247 net250
*248 net251
*249 net252
*250 net253
*251 net254
*252 net255
*253 net256
*254 net257
*255 net258
*256 net259
*257 net26
*258 net260
*259 net261
*260 net262
*261 net263
*262 net264
*263 net265
*264 net266
*265 net267
*266 net268
*267 net269
*268 net27
*269 net270
*270 net271
*271 net272
*272 net273
*273 net274
*274 net275
*275 net276
*276 net277
*277 net278
*278 net279
*279 net28
*280 net280
*281 net281
*282 net282
*283 net283
*284 net284
*285 net285
*286 net286
*287 net287
*288 net288
*289 net289
*290 net29
*291 net290
*292 net291
*293 net292
*294 net293
*295 net294
*296 net295
*297 net296
*298 net297
*299 net298
*300 net299
*301 net30
*302 net300
*303 net301
*304 net302
*305 net303
*306 net304
*307 net305
*308 net306
*309 net307
*310 net308
*311 net309
*312 net31
*313 net310
*314 net311
*315 net312
*316 net313
*317 net314
*318 net315
*319 net316
*320 net317
*321 net318
*322 net319
*323 net32
*324 net320
*325 net321
*326 net322
*327 net323
*328 net324
*329 net325
*330 net326
*331 net327
*332 net328
*333 net329
*334 net33
*335 net330
*336 net331
*337 net332
*338 net333
*339 net334
*340 net335
*341 net336
*342 net337
*343 net338
*344 net339
*345 net34
*346 net340
*347 net341
*348 net342
*349 net343
*350 net344
*351 net345
*352 net346
*353 net347
*354 net348
*355 net349
*356 net35
*357 net350
*358 net351
*359 net352
*360 net353
*361 net354
*362 net355
*363 net356
*364 net357
*365 net358
*366 net359
*367 net36
*368 net360
*369 net361
*370 net362
*371 net363
*372 net364
*373 net365
*374 net366
*375 net367
*376 net368
*377 net369
*378 net37
*379 net370
*380 net371
*381 net372
*382 net373
*383 net374
*384 net375
*385 net376
*386 net377
*387 net378
*388 net379
*389 net38
*390 net380
*391 net381
*392 net382
*393 net383
*394 net384
*395 net385
*396 net386
*397 net387
*398 net388
*399 net389
*400 net39
*401 net390
*402 net391
*403 net392
*404 net393
*405 net394
*406 net395
*407 net396
*408 net397
*409 net398
*410 net399
*411 net40
*412 net400
*413 net401
*414 net402
*415 net403
*416 net404
*417 net405
*418 net406
*419 net407
*420 net408
*421 net409
*422 net41
*423 net410
*424 net411
*425 net412
*426 net413
*427 net414
*428 net415
*429 net416
*430 net417
*431 net418
*432 net419
*433 net42
*434 net420
*435 net421
*436 net422
*437 net423
*438 net424
*439 net425
*440 net426
*441 net427
*442 net428
*443 net429
*444 net43
*445 net430
*446 net431
*447 net432
*448 net433
*449 net434
*450 net435
*451 net436
*452 net437
*453 net438
*454 net439
*455 net44
*456 net440
*457 net441
*458 net442
*459 net443
*460 net444
*461 net445
*462 net446
*463 net447
*464 net448
*465 net449
*466 net45
*467 net450
*468 net451
*469 net452
*470 net453
*471 net454
*472 net455
*473 net456
*474 net457
*475 net458
*476 net459
*477 net46
*478 net460
*479 net461
*480 net462
*481 net463
*482 net464
*483 net465
*484 net466
*485 net467
*486 net468
*487 net469
*488 net47
*489 net470
*490 net471
*491 net472
*492 net473
*493 net474
*494 net475
*495 net476
*496 net477
*497 net478
*498 net479
*499 net48
*500 net480
*501 net481
*502 net482
*503 net483
*504 net484
*505 net485
*506 net486
*507 net487
*508 net488
*509 net489
*510 net49
*511 net490
*512 net491
*513 net492
*514 net493
*515 net494
*516 net495
*517 net496
*518 net497
*519 net498
*520 net499
*521 net50
*522 net500
*523 net501
*524 net502
*525 net503
*526 net504
*527 net505
*528 net506
*529 net507
*530 net508
*531 net509
*532 net51
*533 net510
*534 net511
*535 net512
*536 net513
*537 net514
*538 net515
*539 net516
*540 net517
*541 net518
*542 net519
*543 net52
*544 net520
*545 net521
*546 net522
*547 net523
*548 net524
*549 net525
*550 net526
*551 net527
*552 net528
*553 net529
*554 net53
*555 net530
*556 net531
*557 net532
*558 net533
*559 net534
*560 net535
*561 net536
*562 net537
*563 net538
*564 net539
*565 net54
*566 net540
*567 net541
*568 net542
*569 net543
*570 net544
*571 net545
*572 net546
*573 net547
*574 net548
*575 net549
*576 net55
*577 net550
*578 net551
*579 net552
*580 net553
*581 net554
*582 net555
*583 net556
*584 net557
*585 net558
*586 net559
*587 net56
*588 net560
*589 net561
*590 net562
*591 net563
*592 net564
*593 net565
*594 net566
*595 net567
*596 net568
*597 net569
*598 net57
*599 net570
*600 net571
*601 net572
*602 net573
*603 net574
*604 net575
*605 net576
*606 net577
*607 net578
*608 net579
*609 net58
*610 net580
*611 net581
*612 net582
*613 net583
*614 net584
*615 net585
*616 net586
*617 net587
*618 net588
*619 net589
*620 net59
*621 net590
*622 net591
*623 net592
*624 net593
*625 net594
*626 net595
*627 net596
*628 net597
*629 net598
*630 net599
*631 net60
*632 net600
*633 net601
*634 net602
*635 net603
*636 net604
*637 net605
*638 net606
*639 net607
*640 net608
*641 net609
*642 net61
*643 net610
*644 net611
*645 net612
*646 net613
*647 net614
*648 net615
*649 net616
*650 net617
*651 net618
*652 net619
*653 net62
*654 net620
*655 net621
*656 net622
*657 net623
*658 net624
*659 net625
*660 net626
*661 net627
*662 net628
*663 net629
*664 net63
*665 net630
*666 net631
*667 net632
*668 net633
*669 net634
*670 net635
*671 net636
*672 net637
*673 net638
*674 net639
*675 net64
*676 net640
*677 net641
*678 net642
*679 net643
*680 net644
*681 net645
*682 net646
*683 net647
*684 net648
*685 net649
*686 net65
*687 net650
*688 net651
*689 net652
*690 net653
*691 net654
*692 net655
*693 net656
*694 net657
*695 net658
*696 net659
*697 net66
*698 net660
*699 net661
*700 net662
*701 net663
*702 net664
*703 net665
*704 net666
*705 net667
*706 net668
*707 net669
*708 net67
*709 net670
*710 net671
*711 net672
*712 net673
*713 net674
*714 net675
*715 net676
*716 net677
*717 net678
*718 net679
*719 net68
*720 net680
*721 net681
*722 net682
*723 net683
*724 net684
*725 net685
*726 net686
*727 net687
*728 net688
*729 net689
*730 net69
*731 net690
*732 net691
*733 net692
*734 net70
*735 net71
*736 net72
*737 net73
*738 net74
*739 net75
*740 net76
*741 net77
*742 net78
*743 net79
*744 net80
*745 net81
*746 net82
*747 net83
*748 net84
*749 net85
*750 net86
*751 net87
*752 net88
*753 net89
*754 net90
*755 net91
*756 net92
*757 net93
*758 net94
*759 net95
*760 net96
*761 net97
*762 net98
*763 net99
*764 u_ppwm/global_counter\[0\]
*765 u_ppwm/global_counter\[10\]
*766 u_ppwm/global_counter\[11\]
*767 u_ppwm/global_counter\[12\]
*768 u_ppwm/global_counter\[13\]
*769 u_ppwm/global_counter\[14\]
*770 u_ppwm/global_counter\[15\]
*771 u_ppwm/global_counter\[16\]
*772 u_ppwm/global_counter\[17\]
*773 u_ppwm/global_counter\[18\]
*774 u_ppwm/global_counter\[19\]
*775 u_ppwm/global_counter\[1\]
*776 u_ppwm/global_counter\[2\]
*777 u_ppwm/global_counter\[3\]
*778 u_ppwm/global_counter\[4\]
*779 u_ppwm/global_counter\[5\]
*780 u_ppwm/global_counter\[6\]
*781 u_ppwm/global_counter\[7\]
*782 u_ppwm/global_counter\[8\]
*783 u_ppwm/global_counter\[9\]
*784 u_ppwm/instr\[0\]
*785 u_ppwm/instr\[1\]
*786 u_ppwm/instr\[2\]
*787 u_ppwm/instr\[3\]
*788 u_ppwm/instr\[4\]
*789 u_ppwm/instr\[5\]
*790 u_ppwm/instr\[6\]
*791 u_ppwm/mem_write_done
*792 u_ppwm/pc\[0\]
*793 u_ppwm/pc\[1\]
*794 u_ppwm/pc\[2\]
*795 u_ppwm/pc\[3\]
*796 u_ppwm/period_start
*797 u_ppwm/polarity
*798 u_ppwm/pwm_value\[0\]
*799 u_ppwm/pwm_value\[1\]
*800 u_ppwm/pwm_value\[2\]
*801 u_ppwm/pwm_value\[3\]
*802 u_ppwm/pwm_value\[4\]
*803 u_ppwm/pwm_value\[5\]
*804 u_ppwm/pwm_value\[6\]
*805 u_ppwm/pwm_value\[7\]
*806 u_ppwm/pwm_value\[8\]
*807 u_ppwm/pwm_value\[9\]
*808 u_ppwm/u_ex/_0000_
*809 u_ppwm/u_ex/_0001_
*810 u_ppwm/u_ex/_0002_
*811 u_ppwm/u_ex/_0003_
*812 u_ppwm/u_ex/_0004_
*813 u_ppwm/u_ex/_0005_
*814 u_ppwm/u_ex/_0006_
*815 u_ppwm/u_ex/_0007_
*816 u_ppwm/u_ex/_0008_
*817 u_ppwm/u_ex/_0009_
*818 u_ppwm/u_ex/_0010_
*819 u_ppwm/u_ex/_0011_
*820 u_ppwm/u_ex/_0012_
*821 u_ppwm/u_ex/_0013_
*822 u_ppwm/u_ex/_0014_
*823 u_ppwm/u_ex/_0015_
*824 u_ppwm/u_ex/_0016_
*825 u_ppwm/u_ex/_0017_
*826 u_ppwm/u_ex/_0018_
*827 u_ppwm/u_ex/_0019_
*828 u_ppwm/u_ex/_0020_
*829 u_ppwm/u_ex/_0021_
*830 u_ppwm/u_ex/_0022_
*831 u_ppwm/u_ex/_0023_
*832 u_ppwm/u_ex/_0024_
*833 u_ppwm/u_ex/_0025_
*834 u_ppwm/u_ex/_0026_
*835 u_ppwm/u_ex/_0027_
*836 u_ppwm/u_ex/_0028_
*837 u_ppwm/u_ex/_0029_
*838 u_ppwm/u_ex/_0030_
*839 u_ppwm/u_ex/_0031_
*840 u_ppwm/u_ex/_0032_
*841 u_ppwm/u_ex/_0033_
*842 u_ppwm/u_ex/_0034_
*843 u_ppwm/u_ex/_0035_
*844 u_ppwm/u_ex/_0036_
*845 u_ppwm/u_ex/_0037_
*846 u_ppwm/u_ex/_0038_
*847 u_ppwm/u_ex/_0039_
*848 u_ppwm/u_ex/_0040_
*849 u_ppwm/u_ex/_0041_
*850 u_ppwm/u_ex/_0042_
*851 u_ppwm/u_ex/_0043_
*852 u_ppwm/u_ex/_0044_
*853 u_ppwm/u_ex/_0045_
*854 u_ppwm/u_ex/_0046_
*855 u_ppwm/u_ex/_0047_
*856 u_ppwm/u_ex/_0048_
*857 u_ppwm/u_ex/_0049_
*858 u_ppwm/u_ex/_0050_
*859 u_ppwm/u_ex/_0051_
*860 u_ppwm/u_ex/_0052_
*861 u_ppwm/u_ex/_0053_
*862 u_ppwm/u_ex/_0054_
*863 u_ppwm/u_ex/_0055_
*864 u_ppwm/u_ex/_0056_
*865 u_ppwm/u_ex/_0057_
*866 u_ppwm/u_ex/_0058_
*867 u_ppwm/u_ex/_0059_
*868 u_ppwm/u_ex/_0060_
*869 u_ppwm/u_ex/_0061_
*870 u_ppwm/u_ex/_0062_
*871 u_ppwm/u_ex/_0063_
*872 u_ppwm/u_ex/_0064_
*873 u_ppwm/u_ex/_0065_
*874 u_ppwm/u_ex/_0066_
*875 u_ppwm/u_ex/_0067_
*876 u_ppwm/u_ex/_0068_
*877 u_ppwm/u_ex/_0069_
*878 u_ppwm/u_ex/_0070_
*879 u_ppwm/u_ex/_0071_
*880 u_ppwm/u_ex/_0072_
*881 u_ppwm/u_ex/_0073_
*882 u_ppwm/u_ex/_0074_
*883 u_ppwm/u_ex/_0075_
*884 u_ppwm/u_ex/_0076_
*885 u_ppwm/u_ex/_0077_
*886 u_ppwm/u_ex/_0078_
*887 u_ppwm/u_ex/_0079_
*888 u_ppwm/u_ex/_0080_
*889 u_ppwm/u_ex/_0081_
*890 u_ppwm/u_ex/_0082_
*891 u_ppwm/u_ex/_0083_
*892 u_ppwm/u_ex/_0084_
*893 u_ppwm/u_ex/_0085_
*894 u_ppwm/u_ex/_0086_
*895 u_ppwm/u_ex/_0087_
*896 u_ppwm/u_ex/_0088_
*897 u_ppwm/u_ex/_0089_
*898 u_ppwm/u_ex/_0090_
*899 u_ppwm/u_ex/_0091_
*900 u_ppwm/u_ex/_0092_
*901 u_ppwm/u_ex/_0093_
*902 u_ppwm/u_ex/_0094_
*903 u_ppwm/u_ex/_0095_
*904 u_ppwm/u_ex/_0096_
*905 u_ppwm/u_ex/_0097_
*906 u_ppwm/u_ex/_0098_
*907 u_ppwm/u_ex/_0099_
*908 u_ppwm/u_ex/_0100_
*909 u_ppwm/u_ex/_0101_
*910 u_ppwm/u_ex/_0102_
*911 u_ppwm/u_ex/_0103_
*912 u_ppwm/u_ex/_0104_
*913 u_ppwm/u_ex/_0105_
*914 u_ppwm/u_ex/_0106_
*915 u_ppwm/u_ex/_0107_
*916 u_ppwm/u_ex/_0108_
*917 u_ppwm/u_ex/_0109_
*918 u_ppwm/u_ex/_0110_
*919 u_ppwm/u_ex/_0111_
*920 u_ppwm/u_ex/_0112_
*921 u_ppwm/u_ex/_0113_
*922 u_ppwm/u_ex/_0114_
*923 u_ppwm/u_ex/_0115_
*924 u_ppwm/u_ex/_0116_
*925 u_ppwm/u_ex/_0117_
*926 u_ppwm/u_ex/_0118_
*927 u_ppwm/u_ex/_0119_
*928 u_ppwm/u_ex/_0120_
*929 u_ppwm/u_ex/_0121_
*930 u_ppwm/u_ex/_0122_
*931 u_ppwm/u_ex/_0123_
*932 u_ppwm/u_ex/_0124_
*933 u_ppwm/u_ex/_0125_
*934 u_ppwm/u_ex/_0126_
*935 u_ppwm/u_ex/_0127_
*936 u_ppwm/u_ex/_0128_
*937 u_ppwm/u_ex/_0129_
*938 u_ppwm/u_ex/_0130_
*939 u_ppwm/u_ex/_0131_
*940 u_ppwm/u_ex/_0132_
*941 u_ppwm/u_ex/_0133_
*942 u_ppwm/u_ex/_0134_
*943 u_ppwm/u_ex/_0135_
*944 u_ppwm/u_ex/_0136_
*945 u_ppwm/u_ex/_0137_
*946 u_ppwm/u_ex/_0138_
*947 u_ppwm/u_ex/_0139_
*948 u_ppwm/u_ex/_0140_
*949 u_ppwm/u_ex/_0141_
*950 u_ppwm/u_ex/_0142_
*951 u_ppwm/u_ex/_0143_
*952 u_ppwm/u_ex/_0144_
*953 u_ppwm/u_ex/_0145_
*954 u_ppwm/u_ex/_0146_
*955 u_ppwm/u_ex/_0147_
*956 u_ppwm/u_ex/_0148_
*957 u_ppwm/u_ex/_0149_
*958 u_ppwm/u_ex/_0150_
*959 u_ppwm/u_ex/_0151_
*960 u_ppwm/u_ex/_0152_
*961 u_ppwm/u_ex/_0153_
*962 u_ppwm/u_ex/_0154_
*963 u_ppwm/u_ex/_0155_
*964 u_ppwm/u_ex/_0156_
*965 u_ppwm/u_ex/_0157_
*966 u_ppwm/u_ex/_0158_
*967 u_ppwm/u_ex/_0159_
*968 u_ppwm/u_ex/_0160_
*969 u_ppwm/u_ex/_0161_
*970 u_ppwm/u_ex/_0162_
*971 u_ppwm/u_ex/_0163_
*972 u_ppwm/u_ex/_0164_
*973 u_ppwm/u_ex/_0165_
*974 u_ppwm/u_ex/_0166_
*975 u_ppwm/u_ex/_0167_
*976 u_ppwm/u_ex/_0168_
*977 u_ppwm/u_ex/_0169_
*978 u_ppwm/u_ex/_0170_
*979 u_ppwm/u_ex/_0171_
*980 u_ppwm/u_ex/_0172_
*981 u_ppwm/u_ex/_0173_
*982 u_ppwm/u_ex/_0174_
*983 u_ppwm/u_ex/_0175_
*984 u_ppwm/u_ex/_0176_
*985 u_ppwm/u_ex/_0177_
*986 u_ppwm/u_ex/_0178_
*987 u_ppwm/u_ex/_0179_
*988 u_ppwm/u_ex/_0180_
*989 u_ppwm/u_ex/_0181_
*990 u_ppwm/u_ex/_0182_
*991 u_ppwm/u_ex/_0183_
*992 u_ppwm/u_ex/_0184_
*993 u_ppwm/u_ex/_0185_
*994 u_ppwm/u_ex/_0186_
*995 u_ppwm/u_ex/_0187_
*996 u_ppwm/u_ex/_0188_
*997 u_ppwm/u_ex/_0189_
*998 u_ppwm/u_ex/_0190_
*999 u_ppwm/u_ex/_0191_
*1000 u_ppwm/u_ex/_0192_
*1001 u_ppwm/u_ex/_0193_
*1002 u_ppwm/u_ex/_0194_
*1003 u_ppwm/u_ex/_0195_
*1004 u_ppwm/u_ex/_0196_
*1005 u_ppwm/u_ex/_0197_
*1006 u_ppwm/u_ex/_0198_
*1007 u_ppwm/u_ex/_0199_
*1008 u_ppwm/u_ex/_0200_
*1009 u_ppwm/u_ex/_0201_
*1010 u_ppwm/u_ex/_0202_
*1011 u_ppwm/u_ex/_0203_
*1012 u_ppwm/u_ex/_0204_
*1013 u_ppwm/u_ex/_0205_
*1014 u_ppwm/u_ex/_0206_
*1015 u_ppwm/u_ex/_0207_
*1016 u_ppwm/u_ex/_0208_
*1017 u_ppwm/u_ex/_0209_
*1018 u_ppwm/u_ex/_0210_
*1019 u_ppwm/u_ex/_0211_
*1020 u_ppwm/u_ex/_0212_
*1021 u_ppwm/u_ex/_0213_
*1022 u_ppwm/u_ex/_0214_
*1023 u_ppwm/u_ex/_0215_
*1024 u_ppwm/u_ex/_0216_
*1025 u_ppwm/u_ex/_0217_
*1026 u_ppwm/u_ex/_0218_
*1027 u_ppwm/u_ex/_0219_
*1028 u_ppwm/u_ex/_0220_
*1029 u_ppwm/u_ex/_0221_
*1030 u_ppwm/u_ex/_0222_
*1031 u_ppwm/u_ex/_0223_
*1032 u_ppwm/u_ex/_0224_
*1033 u_ppwm/u_ex/_0225_
*1034 u_ppwm/u_ex/_0226_
*1035 u_ppwm/u_ex/_0227_
*1036 u_ppwm/u_ex/_0228_
*1037 u_ppwm/u_ex/_0229_
*1038 u_ppwm/u_ex/_0230_
*1039 u_ppwm/u_ex/_0231_
*1040 u_ppwm/u_ex/_0232_
*1041 u_ppwm/u_ex/_0233_
*1042 u_ppwm/u_ex/_0234_
*1043 u_ppwm/u_ex/_0235_
*1044 u_ppwm/u_ex/_0236_
*1045 u_ppwm/u_ex/_0237_
*1046 u_ppwm/u_ex/_0238_
*1047 u_ppwm/u_ex/_0239_
*1048 u_ppwm/u_ex/_0240_
*1049 u_ppwm/u_ex/_0241_
*1050 u_ppwm/u_ex/_0242_
*1051 u_ppwm/u_ex/_0243_
*1052 u_ppwm/u_ex/_0244_
*1053 u_ppwm/u_ex/_0245_
*1054 u_ppwm/u_ex/_0246_
*1055 u_ppwm/u_ex/_0247_
*1056 u_ppwm/u_ex/_0248_
*1057 u_ppwm/u_ex/_0249_
*1058 u_ppwm/u_ex/_0250_
*1059 u_ppwm/u_ex/_0251_
*1060 u_ppwm/u_ex/_0252_
*1061 u_ppwm/u_ex/_0253_
*1062 u_ppwm/u_ex/_0254_
*1063 u_ppwm/u_ex/_0255_
*1064 u_ppwm/u_ex/_0256_
*1065 u_ppwm/u_ex/_0257_
*1066 u_ppwm/u_ex/_0258_
*1067 u_ppwm/u_ex/_0259_
*1068 u_ppwm/u_ex/_0260_
*1069 u_ppwm/u_ex/_0261_
*1070 u_ppwm/u_ex/_0262_
*1071 u_ppwm/u_ex/_0263_
*1072 u_ppwm/u_ex/_0264_
*1073 u_ppwm/u_ex/_0265_
*1074 u_ppwm/u_ex/_0266_
*1075 u_ppwm/u_ex/_0267_
*1076 u_ppwm/u_ex/_0268_
*1077 u_ppwm/u_ex/_0269_
*1078 u_ppwm/u_ex/_0270_
*1079 u_ppwm/u_ex/_0271_
*1080 u_ppwm/u_ex/_0272_
*1081 u_ppwm/u_ex/_0273_
*1082 u_ppwm/u_ex/_0274_
*1083 u_ppwm/u_ex/_0275_
*1084 u_ppwm/u_ex/_0276_
*1085 u_ppwm/u_ex/_0277_
*1086 u_ppwm/u_ex/_0278_
*1087 u_ppwm/u_ex/_0279_
*1088 u_ppwm/u_ex/_0280_
*1089 u_ppwm/u_ex/_0281_
*1090 u_ppwm/u_ex/_0282_
*1091 u_ppwm/u_ex/_0283_
*1092 u_ppwm/u_ex/_0284_
*1093 u_ppwm/u_ex/_0285_
*1094 u_ppwm/u_ex/_0286_
*1095 u_ppwm/u_ex/_0287_
*1096 u_ppwm/u_ex/_0288_
*1097 u_ppwm/u_ex/_0289_
*1098 u_ppwm/u_ex/_0290_
*1099 u_ppwm/u_ex/_0291_
*1100 u_ppwm/u_ex/_0292_
*1101 u_ppwm/u_ex/_0293_
*1102 u_ppwm/u_ex/_0294_
*1103 u_ppwm/u_ex/_0295_
*1104 u_ppwm/u_ex/_0296_
*1105 u_ppwm/u_ex/_0297_
*1106 u_ppwm/u_ex/_0298_
*1107 u_ppwm/u_ex/_0299_
*1108 u_ppwm/u_ex/_0300_
*1109 u_ppwm/u_ex/_0301_
*1110 u_ppwm/u_ex/_0302_
*1111 u_ppwm/u_ex/_0303_
*1112 u_ppwm/u_ex/_0304_
*1113 u_ppwm/u_ex/_0305_
*1114 u_ppwm/u_ex/_0306_
*1115 u_ppwm/u_ex/_0307_
*1116 u_ppwm/u_ex/_0308_
*1117 u_ppwm/u_ex/_0309_
*1118 u_ppwm/u_ex/_0310_
*1119 u_ppwm/u_ex/_0311_
*1120 u_ppwm/u_ex/_0312_
*1121 u_ppwm/u_ex/_0313_
*1122 u_ppwm/u_ex/_0314_
*1123 u_ppwm/u_ex/_0315_
*1124 u_ppwm/u_ex/_0316_
*1125 u_ppwm/u_ex/_0317_
*1126 u_ppwm/u_ex/_0318_
*1127 u_ppwm/u_ex/_0319_
*1128 u_ppwm/u_ex/_0320_
*1129 u_ppwm/u_ex/_0321_
*1130 u_ppwm/u_ex/_0322_
*1131 u_ppwm/u_ex/_0323_
*1132 u_ppwm/u_ex/_0324_
*1133 u_ppwm/u_ex/_0325_
*1134 u_ppwm/u_ex/_0326_
*1135 u_ppwm/u_ex/_0327_
*1136 u_ppwm/u_ex/_0328_
*1137 u_ppwm/u_ex/_0329_
*1138 u_ppwm/u_ex/_0330_
*1139 u_ppwm/u_ex/_0331_
*1140 u_ppwm/u_ex/_0332_
*1141 u_ppwm/u_ex/_0333_
*1142 u_ppwm/u_ex/_0334_
*1143 u_ppwm/u_ex/_0335_
*1144 u_ppwm/u_ex/_0336_
*1145 u_ppwm/u_ex/_0337_
*1146 u_ppwm/u_ex/_0338_
*1147 u_ppwm/u_ex/_0339_
*1148 u_ppwm/u_ex/_0340_
*1149 u_ppwm/u_ex/_0341_
*1150 u_ppwm/u_ex/_0342_
*1151 u_ppwm/u_ex/_0343_
*1152 u_ppwm/u_ex/_0344_
*1153 u_ppwm/u_ex/_0345_
*1154 u_ppwm/u_ex/_0346_
*1155 u_ppwm/u_ex/_0347_
*1156 u_ppwm/u_ex/_0348_
*1157 u_ppwm/u_ex/_0349_
*1158 u_ppwm/u_ex/_0350_
*1159 u_ppwm/u_ex/_0351_
*1160 u_ppwm/u_ex/_0352_
*1161 u_ppwm/u_ex/_0353_
*1162 u_ppwm/u_ex/_0354_
*1163 u_ppwm/u_ex/_0355_
*1164 u_ppwm/u_ex/_0356_
*1165 u_ppwm/u_ex/_0357_
*1166 u_ppwm/u_ex/_0358_
*1167 u_ppwm/u_ex/_0359_
*1168 u_ppwm/u_ex/_0360_
*1169 u_ppwm/u_ex/_0361_
*1170 u_ppwm/u_ex/_0362_
*1171 u_ppwm/u_ex/_0363_
*1172 u_ppwm/u_ex/_0364_
*1173 u_ppwm/u_ex/_0365_
*1174 u_ppwm/u_ex/_0366_
*1175 u_ppwm/u_ex/_0367_
*1176 u_ppwm/u_ex/_0368_
*1177 u_ppwm/u_ex/_0369_
*1178 u_ppwm/u_ex/_0370_
*1179 u_ppwm/u_ex/_0371_
*1180 u_ppwm/u_ex/_0372_
*1181 u_ppwm/u_ex/_0373_
*1182 u_ppwm/u_ex/_0374_
*1183 u_ppwm/u_ex/_0375_
*1184 u_ppwm/u_ex/_0376_
*1185 u_ppwm/u_ex/_0377_
*1186 u_ppwm/u_ex/_0378_
*1187 u_ppwm/u_ex/_0379_
*1188 u_ppwm/u_ex/_0380_
*1189 u_ppwm/u_ex/_0381_
*1190 u_ppwm/u_ex/_0382_
*1191 u_ppwm/u_ex/_0383_
*1192 u_ppwm/u_ex/_0384_
*1193 u_ppwm/u_ex/_0385_
*1194 u_ppwm/u_ex/_0386_
*1195 u_ppwm/u_ex/_0387_
*1196 u_ppwm/u_ex/_0388_
*1197 u_ppwm/u_ex/_0389_
*1198 u_ppwm/u_ex/_0390_
*1199 u_ppwm/u_ex/_0391_
*1200 u_ppwm/u_ex/_0392_
*1201 u_ppwm/u_ex/_0393_
*1202 u_ppwm/u_ex/_0394_
*1203 u_ppwm/u_ex/_0395_
*1204 u_ppwm/u_ex/_0396_
*1205 u_ppwm/u_ex/_0397_
*1206 u_ppwm/u_ex/_0398_
*1207 u_ppwm/u_ex/_0399_
*1208 u_ppwm/u_ex/_0400_
*1209 u_ppwm/u_ex/_0401_
*1210 u_ppwm/u_ex/_0402_
*1211 u_ppwm/u_ex/_0403_
*1212 u_ppwm/u_ex/_0404_
*1213 u_ppwm/u_ex/_0405_
*1214 u_ppwm/u_ex/_0406_
*1215 u_ppwm/u_ex/_0407_
*1216 u_ppwm/u_ex/_0408_
*1217 u_ppwm/u_ex/_0409_
*1218 u_ppwm/u_ex/_0410_
*1219 u_ppwm/u_ex/_0411_
*1220 u_ppwm/u_ex/_0412_
*1221 u_ppwm/u_ex/_0413_
*1222 u_ppwm/u_ex/_0414_
*1223 u_ppwm/u_ex/_0415_
*1224 u_ppwm/u_ex/_0416_
*1225 u_ppwm/u_ex/_0417_
*1226 u_ppwm/u_ex/_0418_
*1227 u_ppwm/u_ex/_0419_
*1228 u_ppwm/u_ex/_0420_
*1229 u_ppwm/u_ex/_0421_
*1230 u_ppwm/u_ex/_0422_
*1231 u_ppwm/u_ex/_0423_
*1232 u_ppwm/u_ex/_0424_
*1233 u_ppwm/u_ex/_0425_
*1234 u_ppwm/u_ex/_0426_
*1235 u_ppwm/u_ex/_0427_
*1236 u_ppwm/u_ex/_0428_
*1237 u_ppwm/u_ex/_0429_
*1238 u_ppwm/u_ex/_0430_
*1239 u_ppwm/u_ex/_0431_
*1240 u_ppwm/u_ex/_0432_
*1241 u_ppwm/u_ex/_0433_
*1242 u_ppwm/u_ex/_0434_
*1243 u_ppwm/u_ex/_0435_
*1244 u_ppwm/u_ex/_0436_
*1245 u_ppwm/u_ex/_0437_
*1246 u_ppwm/u_ex/_0438_
*1247 u_ppwm/u_ex/_0439_
*1248 u_ppwm/u_ex/_0440_
*1249 u_ppwm/u_ex/_0441_
*1250 u_ppwm/u_ex/_0442_
*1251 u_ppwm/u_ex/_0443_
*1252 u_ppwm/u_ex/_0444_
*1253 u_ppwm/u_ex/_0445_
*1254 u_ppwm/u_ex/_0446_
*1255 u_ppwm/u_ex/_0447_
*1256 u_ppwm/u_ex/_0448_
*1257 u_ppwm/u_ex/_0449_
*1258 u_ppwm/u_ex/_0450_
*1259 u_ppwm/u_ex/_0451_
*1260 u_ppwm/u_ex/_0452_
*1261 u_ppwm/u_ex/_0453_
*1262 u_ppwm/u_ex/_0454_
*1263 u_ppwm/u_ex/_0455_
*1264 u_ppwm/u_ex/_0456_
*1265 u_ppwm/u_ex/_0457_
*1266 u_ppwm/u_ex/_0458_
*1267 u_ppwm/u_ex/_0459_
*1268 u_ppwm/u_ex/_0460_
*1269 u_ppwm/u_ex/_0461_
*1270 u_ppwm/u_ex/_0462_
*1271 u_ppwm/u_ex/_0463_
*1272 u_ppwm/u_ex/_0464_
*1273 u_ppwm/u_ex/_0465_
*1274 u_ppwm/u_ex/_0466_
*1275 u_ppwm/u_ex/_0467_
*1276 u_ppwm/u_ex/_0468_
*1277 u_ppwm/u_ex/_0469_
*1278 u_ppwm/u_ex/_0470_
*1279 u_ppwm/u_ex/_0471_
*1280 u_ppwm/u_ex/_0472_
*1281 u_ppwm/u_ex/_0473_
*1282 u_ppwm/u_ex/_0474_
*1283 u_ppwm/u_ex/_0475_
*1284 u_ppwm/u_ex/_0476_
*1285 u_ppwm/u_ex/_0477_
*1286 u_ppwm/u_ex/_0478_
*1287 u_ppwm/u_ex/_0479_
*1288 u_ppwm/u_ex/_0480_
*1289 u_ppwm/u_ex/_0481_
*1290 u_ppwm/u_ex/_0482_
*1291 u_ppwm/u_ex/_0483_
*1292 u_ppwm/u_ex/_0484_
*1293 u_ppwm/u_ex/_0485_
*1294 u_ppwm/u_ex/_0486_
*1295 u_ppwm/u_ex/_0487_
*1296 u_ppwm/u_ex/_0488_
*1297 u_ppwm/u_ex/_0489_
*1298 u_ppwm/u_ex/_0490_
*1299 u_ppwm/u_ex/_0491_
*1300 u_ppwm/u_ex/_0492_
*1301 u_ppwm/u_ex/_0493_
*1302 u_ppwm/u_ex/_0494_
*1303 u_ppwm/u_ex/_0495_
*1304 u_ppwm/u_ex/_0496_
*1305 u_ppwm/u_ex/_0497_
*1306 u_ppwm/u_ex/_0498_
*1307 u_ppwm/u_ex/_0499_
*1308 u_ppwm/u_ex/_0500_
*1309 u_ppwm/u_ex/_0501_
*1310 u_ppwm/u_ex/_0502_
*1311 u_ppwm/u_ex/_0503_
*1312 u_ppwm/u_ex/_0504_
*1313 u_ppwm/u_ex/_0505_
*1314 u_ppwm/u_ex/_0506_
*1315 u_ppwm/u_ex/_0507_
*1316 u_ppwm/u_ex/_0508_
*1317 u_ppwm/u_ex/_0509_
*1318 u_ppwm/u_ex/_0510_
*1319 u_ppwm/u_ex/_0511_
*1320 u_ppwm/u_ex/_0512_
*1321 u_ppwm/u_ex/_0513_
*1322 u_ppwm/u_ex/_0514_
*1323 u_ppwm/u_ex/_0515_
*1324 u_ppwm/u_ex/_0516_
*1325 u_ppwm/u_ex/_0517_
*1326 u_ppwm/u_ex/_0518_
*1327 u_ppwm/u_ex/_0519_
*1328 u_ppwm/u_ex/_0520_
*1329 u_ppwm/u_ex/_0521_
*1330 u_ppwm/u_ex/_0522_
*1331 u_ppwm/u_ex/_0523_
*1332 u_ppwm/u_ex/_0524_
*1333 u_ppwm/u_ex/_0525_
*1334 u_ppwm/u_ex/_0526_
*1335 u_ppwm/u_ex/_0527_
*1336 u_ppwm/u_ex/_0528_
*1337 u_ppwm/u_ex/_0529_
*1338 u_ppwm/u_ex/_0530_
*1339 u_ppwm/u_ex/_0531_
*1340 u_ppwm/u_ex/_0532_
*1341 u_ppwm/u_ex/_0533_
*1342 u_ppwm/u_ex/_0534_
*1343 u_ppwm/u_ex/cmp_flag_q
*1344 u_ppwm/u_ex/reg_value_q\[0\]
*1345 u_ppwm/u_ex/reg_value_q\[1\]
*1346 u_ppwm/u_ex/reg_value_q\[2\]
*1347 u_ppwm/u_ex/reg_value_q\[3\]
*1348 u_ppwm/u_ex/reg_value_q\[4\]
*1349 u_ppwm/u_ex/reg_value_q\[5\]
*1350 u_ppwm/u_ex/reg_value_q\[6\]
*1351 u_ppwm/u_ex/reg_value_q\[7\]
*1352 u_ppwm/u_ex/reg_value_q\[8\]
*1353 u_ppwm/u_ex/reg_value_q\[9\]
*1354 u_ppwm/u_ex/state_q\[0\]
*1355 u_ppwm/u_ex/state_q\[1\]
*1356 u_ppwm/u_ex/state_q\[2\]
*1357 u_ppwm/u_global_counter/_000_
*1358 u_ppwm/u_global_counter/_001_
*1359 u_ppwm/u_global_counter/_002_
*1360 u_ppwm/u_global_counter/_003_
*1361 u_ppwm/u_global_counter/_004_
*1362 u_ppwm/u_global_counter/_005_
*1363 u_ppwm/u_global_counter/_006_
*1364 u_ppwm/u_global_counter/_007_
*1365 u_ppwm/u_global_counter/_008_
*1366 u_ppwm/u_global_counter/_009_
*1367 u_ppwm/u_global_counter/_010_
*1368 u_ppwm/u_global_counter/_011_
*1369 u_ppwm/u_global_counter/_012_
*1370 u_ppwm/u_global_counter/_013_
*1371 u_ppwm/u_global_counter/_014_
*1372 u_ppwm/u_global_counter/_015_
*1373 u_ppwm/u_global_counter/_016_
*1374 u_ppwm/u_global_counter/_017_
*1375 u_ppwm/u_global_counter/_018_
*1376 u_ppwm/u_global_counter/_019_
*1377 u_ppwm/u_global_counter/_020_
*1378 u_ppwm/u_global_counter/_021_
*1379 u_ppwm/u_global_counter/_022_
*1380 u_ppwm/u_global_counter/_023_
*1381 u_ppwm/u_global_counter/_024_
*1382 u_ppwm/u_global_counter/_025_
*1383 u_ppwm/u_global_counter/_026_
*1384 u_ppwm/u_global_counter/_027_
*1385 u_ppwm/u_global_counter/_028_
*1386 u_ppwm/u_global_counter/_029_
*1387 u_ppwm/u_global_counter/_030_
*1388 u_ppwm/u_global_counter/_031_
*1389 u_ppwm/u_global_counter/_032_
*1390 u_ppwm/u_global_counter/_033_
*1391 u_ppwm/u_global_counter/_034_
*1392 u_ppwm/u_global_counter/_035_
*1393 u_ppwm/u_global_counter/_036_
*1394 u_ppwm/u_global_counter/_037_
*1395 u_ppwm/u_global_counter/_038_
*1396 u_ppwm/u_global_counter/_039_
*1397 u_ppwm/u_global_counter/_040_
*1398 u_ppwm/u_global_counter/_041_
*1399 u_ppwm/u_global_counter/_042_
*1400 u_ppwm/u_global_counter/_043_
*1401 u_ppwm/u_global_counter/_044_
*1402 u_ppwm/u_global_counter/_045_
*1403 u_ppwm/u_global_counter/_046_
*1404 u_ppwm/u_global_counter/_047_
*1405 u_ppwm/u_global_counter/_048_
*1406 u_ppwm/u_global_counter/_049_
*1407 u_ppwm/u_global_counter/_050_
*1408 u_ppwm/u_global_counter/_051_
*1409 u_ppwm/u_global_counter/_052_
*1410 u_ppwm/u_mem/_0000_
*1411 u_ppwm/u_mem/_0001_
*1412 u_ppwm/u_mem/_0002_
*1413 u_ppwm/u_mem/_0003_
*1414 u_ppwm/u_mem/_0004_
*1415 u_ppwm/u_mem/_0005_
*1416 u_ppwm/u_mem/_0006_
*1417 u_ppwm/u_mem/_0007_
*1418 u_ppwm/u_mem/_0008_
*1419 u_ppwm/u_mem/_0009_
*1420 u_ppwm/u_mem/_0010_
*1421 u_ppwm/u_mem/_0011_
*1422 u_ppwm/u_mem/_0012_
*1423 u_ppwm/u_mem/_0013_
*1424 u_ppwm/u_mem/_0014_
*1425 u_ppwm/u_mem/_0015_
*1426 u_ppwm/u_mem/_0016_
*1427 u_ppwm/u_mem/_0017_
*1428 u_ppwm/u_mem/_0018_
*1429 u_ppwm/u_mem/_0019_
*1430 u_ppwm/u_mem/_0020_
*1431 u_ppwm/u_mem/_0021_
*1432 u_ppwm/u_mem/_0022_
*1433 u_ppwm/u_mem/_0023_
*1434 u_ppwm/u_mem/_0024_
*1435 u_ppwm/u_mem/_0025_
*1436 u_ppwm/u_mem/_0026_
*1437 u_ppwm/u_mem/_0027_
*1438 u_ppwm/u_mem/_0028_
*1439 u_ppwm/u_mem/_0029_
*1440 u_ppwm/u_mem/_0030_
*1441 u_ppwm/u_mem/_0031_
*1442 u_ppwm/u_mem/_0032_
*1443 u_ppwm/u_mem/_0033_
*1444 u_ppwm/u_mem/_0034_
*1445 u_ppwm/u_mem/_0035_
*1446 u_ppwm/u_mem/_0036_
*1447 u_ppwm/u_mem/_0037_
*1448 u_ppwm/u_mem/_0038_
*1449 u_ppwm/u_mem/_0039_
*1450 u_ppwm/u_mem/_0040_
*1451 u_ppwm/u_mem/_0041_
*1452 u_ppwm/u_mem/_0042_
*1453 u_ppwm/u_mem/_0043_
*1454 u_ppwm/u_mem/_0044_
*1455 u_ppwm/u_mem/_0045_
*1456 u_ppwm/u_mem/_0046_
*1457 u_ppwm/u_mem/_0047_
*1458 u_ppwm/u_mem/_0048_
*1459 u_ppwm/u_mem/_0049_
*1460 u_ppwm/u_mem/_0050_
*1461 u_ppwm/u_mem/_0051_
*1462 u_ppwm/u_mem/_0052_
*1463 u_ppwm/u_mem/_0053_
*1464 u_ppwm/u_mem/_0054_
*1465 u_ppwm/u_mem/_0055_
*1466 u_ppwm/u_mem/_0056_
*1467 u_ppwm/u_mem/_0057_
*1468 u_ppwm/u_mem/_0058_
*1469 u_ppwm/u_mem/_0059_
*1470 u_ppwm/u_mem/_0060_
*1471 u_ppwm/u_mem/_0061_
*1472 u_ppwm/u_mem/_0062_
*1473 u_ppwm/u_mem/_0063_
*1474 u_ppwm/u_mem/_0064_
*1475 u_ppwm/u_mem/_0065_
*1476 u_ppwm/u_mem/_0066_
*1477 u_ppwm/u_mem/_0067_
*1478 u_ppwm/u_mem/_0068_
*1479 u_ppwm/u_mem/_0069_
*1480 u_ppwm/u_mem/_0070_
*1481 u_ppwm/u_mem/_0071_
*1482 u_ppwm/u_mem/_0072_
*1483 u_ppwm/u_mem/_0073_
*1484 u_ppwm/u_mem/_0074_
*1485 u_ppwm/u_mem/_0075_
*1486 u_ppwm/u_mem/_0076_
*1487 u_ppwm/u_mem/_0077_
*1488 u_ppwm/u_mem/_0078_
*1489 u_ppwm/u_mem/_0079_
*1490 u_ppwm/u_mem/_0080_
*1491 u_ppwm/u_mem/_0081_
*1492 u_ppwm/u_mem/_0082_
*1493 u_ppwm/u_mem/_0083_
*1494 u_ppwm/u_mem/_0084_
*1495 u_ppwm/u_mem/_0085_
*1496 u_ppwm/u_mem/_0086_
*1497 u_ppwm/u_mem/_0087_
*1498 u_ppwm/u_mem/_0088_
*1499 u_ppwm/u_mem/_0089_
*1500 u_ppwm/u_mem/_0090_
*1501 u_ppwm/u_mem/_0091_
*1502 u_ppwm/u_mem/_0092_
*1503 u_ppwm/u_mem/_0093_
*1504 u_ppwm/u_mem/_0094_
*1505 u_ppwm/u_mem/_0095_
*1506 u_ppwm/u_mem/_0096_
*1507 u_ppwm/u_mem/_0097_
*1508 u_ppwm/u_mem/_0098_
*1509 u_ppwm/u_mem/_0099_
*1510 u_ppwm/u_mem/_0100_
*1511 u_ppwm/u_mem/_0101_
*1512 u_ppwm/u_mem/_0102_
*1513 u_ppwm/u_mem/_0103_
*1514 u_ppwm/u_mem/_0104_
*1515 u_ppwm/u_mem/_0105_
*1516 u_ppwm/u_mem/_0106_
*1517 u_ppwm/u_mem/_0107_
*1518 u_ppwm/u_mem/_0108_
*1519 u_ppwm/u_mem/_0109_
*1520 u_ppwm/u_mem/_0110_
*1521 u_ppwm/u_mem/_0111_
*1522 u_ppwm/u_mem/_0112_
*1523 u_ppwm/u_mem/_0113_
*1524 u_ppwm/u_mem/_0114_
*1525 u_ppwm/u_mem/_0115_
*1526 u_ppwm/u_mem/_0116_
*1527 u_ppwm/u_mem/_0117_
*1528 u_ppwm/u_mem/_0118_
*1529 u_ppwm/u_mem/_0119_
*1530 u_ppwm/u_mem/_0120_
*1531 u_ppwm/u_mem/_0121_
*1532 u_ppwm/u_mem/_0122_
*1533 u_ppwm/u_mem/_0123_
*1534 u_ppwm/u_mem/_0124_