*SPEF "ieee 1481-1999"
*DESIGN "heichips25_ppwm"
*DATE "07:51:39 Saturday August 16, 2025"
*VENDOR "The OpenROAD Project"
*PROGRAM "OpenROAD"
*VERSION "341650e72dad0dc8571822ff8c5d9c5e365327f7"
*DESIGN_FLOW "NAME_SCOPE LOCAL" "PIN_CAP NONE"
*DIVIDER /
*DELIMITER :
*BUS_DELIMITER []
*T_UNIT 1 NS
*C_UNIT 1 PF
*R_UNIT 1 OHM
*L_UNIT 1 HENRY

*NAME_MAP
*3 clk
*4 ena
*5 rst_n
*6 ui_in[0]
*7 ui_in[1]
*8 ui_in[2]
*9 ui_in[3]
*10 ui_in[4]
*11 ui_in[5]
*12 ui_in[6]
*13 ui_in[7]
*14 uio_in[0]
*15 uio_in[1]
*16 uio_in[2]
*17 uio_in[3]
*18 uio_in[4]
*19 uio_in[5]
*20 uio_in[6]
*21 uio_in[7]
*22 net3
*23 net4
*24 net5
*25 net6
*26 net7
*27 net8
*28 net9
*29 net10
*30 net11
*31 net12
*32 net13
*33 net14
*34 net15
*35 net16
*36 net17
*37 net18
*38 uo_out[0]
*39 net19
*40 net20
*41 net21
*42 net22
*43 net23
*44 net24
*45 net25
*46 clknet_0_clk
*47 clknet_4_0_0_clk
*48 clknet_4_10_0_clk
*49 clknet_4_11_0_clk
*50 clknet_4_12_0_clk
*51 clknet_4_13_0_clk
*52 clknet_4_14_0_clk
*53 clknet_4_15_0_clk
*54 clknet_4_1_0_clk
*55 clknet_4_2_0_clk
*56 clknet_4_3_0_clk
*57 clknet_4_4_0_clk
*58 clknet_4_5_0_clk
*59 clknet_4_6_0_clk
*60 clknet_4_7_0_clk
*61 clknet_4_8_0_clk
*62 clknet_4_9_0_clk
*63 clknet_5_0__leaf_clk
*64 clknet_5_10__leaf_clk
*65 clknet_5_11__leaf_clk
*66 clknet_5_12__leaf_clk
*67 clknet_5_13__leaf_clk
*68 clknet_5_14__leaf_clk
*69 clknet_5_15__leaf_clk
*70 clknet_5_16__leaf_clk
*71 clknet_5_17__leaf_clk
*72 clknet_5_18__leaf_clk
*73 clknet_5_19__leaf_clk
*74 clknet_5_1__leaf_clk
*75 clknet_5_20__leaf_clk
*76 clknet_5_21__leaf_clk
*77 clknet_5_22__leaf_clk
*78 clknet_5_23__leaf_clk
*79 clknet_5_24__leaf_clk
*80 clknet_5_25__leaf_clk
*81 clknet_5_26__leaf_clk
*82 clknet_5_27__leaf_clk
*83 clknet_5_28__leaf_clk
*84 clknet_5_29__leaf_clk
*85 clknet_5_2__leaf_clk
*86 clknet_5_30__leaf_clk
*87 clknet_5_31__leaf_clk
*88 clknet_5_3__leaf_clk
*89 clknet_5_4__leaf_clk
*90 clknet_5_5__leaf_clk
*91 clknet_5_6__leaf_clk
*92 clknet_5_7__leaf_clk
*93 clknet_5_8__leaf_clk
*94 clknet_5_9__leaf_clk
*95 net1
*96 net100
*97 net101
*98 net102
*99 net103
*100 net104
*101 net105
*102 net106
*103 net107
*104 net108
*105 net109
*106 net110
*107 net111
*108 net112
*109 net113
*110 net114
*111 net115
*112 net116
*113 net117
*114 net118
*115 net119
*116 net120
*117 net121
*118 net122
*119 net123
*120 net124
*121 net125
*122 net126
*123 net127
*124 net128
*125 net129
*126 net130
*127 net131
*128 net132
*129 net133
*130 net134
*131 net135
*132 net136
*133 net137
*134 net138
*135 net139
*136 net140
*137 net141
*138 net142
*139 net143
*140 net144
*141 net145
*142 net146
*143 net147
*144 net148
*145 net149
*146 net150
*147 net151
*148 net152
*149 net153
*150 net154
*151 net155
*152 net156
*153 net157
*154 net158
*155 net159
*156 net160
*157 net161
*158 net162
*159 net163
*160 net164
*161 net165
*162 net166
*163 net167
*164 net168
*165 net169
*166 net170
*167 net171
*168 net172
*169 net173
*170 net174
*171 net175
*172 net176
*173 net177
*174 net178
*175 net179
*176 net180
*177 net181
*178 net182
*179 net183
*180 net184
*181 net185
*182 net186
*183 net187
*184 net188
*185 net189
*186 net190
*187 net191
*188 net192
*189 net193
*190 net194
*191 net195
*192 net196
*193 net197
*194 net198
*195 net199
*196 net2
*197 net200
*198 net201
*199 net202
*200 net203
*201 net204
*202 net205
*203 net206
*204 net207
*205 net208
*206 net209
*207 net210
*208 net211
*209 net212
*210 net213
*211 net214
*212 net215
*213 net216
*214 net217
*215 net218
*216 net219
*217 net220
*218 net221
*219 net222
*220 net223
*221 net224
*222 net225
*223 net226
*224 net227
*225 net228
*226 net229
*227 net230
*228 net231
*229 net232
*230 net233
*231 net234
*232 net235
*233 net236
*234 net237
*235 net238
*236 net239
*237 net240
*238 net241
*239 net242
*240 net243
*241 net244
*242 net245
*243 net246
*244 net247
*245 net248
*246 net249
*247 net250
*248 net251
*249 net252
*250 net253
*251 net254
*252 net255
*253 net256
*254 net257
*255 net258
*256 net259
*257 net26
*258 net260
*259 net261
*260 net262
*261 net263
*262 net264
*263 net265
*264 net266
*265 net267
*266 net268
*267 net269
*268 net27
*269 net270
*270 net271
*271 net272
*272 net273
*273 net274
*274 net275
*275 net276
*276 net277
*277 net278
*278 net279
*279 net28
*280 net280
*281 net281
*282 net282
*283 net283
*284 net284
*285 net285
*286 net286
*287 net287
*288 net288
*289 net289
*290 net29
*291 net290
*292 net291
*293 net292
*294 net293
*295 net294
*296 net295
*297 net296
*298 net297
*299 net298
*300 net299
*301 net30
*302 net300
*303 net301
*304 net302
*305 net303
*306 net304
*307 net305
*308 net306
*309 net307
*310 net308
*311 net309
*312 net31
*313 net310
*314 net311
*315 net312
*316 net313
*317 net314
*318 net315
*319 net316
*320 net317
*321 net318
*322 net319
*323 net32
*324 net320
*325 net321
*326 net322
*327 net323
*328 net324
*329 net325
*330 net326
*331 net327
*332 net328
*333 net329
*334 net33
*335 net330
*336 net331
*337 net332
*338 net333
*339 net334
*340 net335
*341 net336
*342 net337
*343 net338
*344 net339
*345 net34
*346 net340
*347 net341
*348 net342
*349 net343
*350 net344
*351 net345
*352 net346
*353 net347
*354 net348
*355 net349
*356 net35
*357 net350
*358 net351
*359 net352
*360 net353
*361 net354
*362 net355
*363 net356
*364 net357
*365 net358
*366 net359
*367 net36
*368 net360
*369 net361
*370 net362
*371 net363
*372 net364
*373 net365
*374 net366
*375 net367
*376 net368
*377 net369
*378 net37
*379 net370
*380 net371
*381 net372
*382 net373
*383 net374
*384 net375
*385 net376
*386 net377
*387 net378
*388 net379
*389 net38
*390 net380
*391 net381
*392 net382
*393 net383
*394 net384
*395 net385
*396 net386
*397 net387
*398 net388
*399 net389
*400 net39
*401 net390
*402 net391
*403 net392
*404 net393
*405 net394
*406 net395
*407 net396
*408 net397
*409 net398
*410 net399
*411 net40
*412 net400
*413 net401
*414 net402
*415 net403
*416 net404
*417 net405
*418 net406
*419 net407
*420 net408
*421 net409
*422 net41
*423 net410
*424 net411
*425 net412
*426 net413
*427 net414
*428 net415
*429 net416
*430 net417
*431 net418
*432 net419
*433 net42
*434 net420
*435 net421
*436 net422
*437 net423
*438 net424
*439 net425
*440 net426
*441 net427
*442 net428
*443 net429
*444 net43
*445 net430
*446 net431
*447 net432
*448 net433
*449 net434
*450 net435
*451 net436
*452 net437
*453 net438
*454 net439
*455 net44
*456 net440
*457 net441
*458 net442
*459 net443
*460 net444
*461 net445
*462 net446
*463 net447
*464 net448
*465 net449
*466 net45
*467 net450
*468 net451
*469 net452
*470 net453
*471 net454
*472 net455
*473 net456
*474 net457
*475 net458
*476 net459
*477 net46
*478 net460
*479 net461
*480 net462
*481 net463
*482 net464
*483 net465
*484 net466
*485 net467
*486 net468
*487 net469
*488 net47
*489 net470
*490 net471
*491 net472
*492 net473
*493 net474
*494 net475
*495 net476
*496 net477
*497 net478
*498 net479
*499 net48
*500 net480
*501 net481
*502 net482
*503 net483
*504 net484
*505 net485
*506 net486
*507 net487
*508 net488
*509 net489
*510 net49
*511 net490
*512 net491
*513 net492
*514 net493
*515 net494
*516 net495
*517 net496
*518 net497
*519 net498
*520 net499
*521 net50
*522 net500
*523 net501
*524 net502
*525 net503
*526 net504
*527 net505
*528 net506
*529 net507
*530 net508
*531 net509
*532 net51
*533 net510
*534 net511
*535 net512
*536 net513
*537 net514
*538 net515
*539 net516
*540 net517
*541 net518
*542 net519
*543 net52
*544 net520
*545 net521
*546 net522
*547 net523
*548 net524
*549 net525
*550 net526
*551 net527
*552 net528
*553 net529
*554 net53
*555 net530
*556 net531
*557 net532
*558 net533
*559 net534
*560 net535
*561 net536
*562 net537
*563 net538
*564 net539
*565 net54
*566 net540
*567 net541
*568 net542
*569 net543
*570 net544
*571 net545
*572 net546
*573 net547
*574 net548
*575 net549
*576 net55
*577 net550
*578 net551
*579 net552
*580 net553
*581 net554
*582 net555
*583 net556
*584 net557
*585 net558
*586 net559
*587 net56
*588 net560
*589 net561
*590 net562
*591 net563
*592 net564
*593 net565
*594 net566
*595 net567
*596 net568
*597 net569
*598 net57
*599 net570
*600 net571
*601 net572
*602 net573
*603 net574
*604 net575
*605 net576
*606 net577
*607 net578
*608 net579
*609 net58
*610 net580
*611 net581
*612 net582
*613 net583
*614 net584
*615 net585
*616 net586
*617 net587
*618 net588
*619 net589
*620 net59
*621 net590
*622 net591
*623 net592
*624 net593
*625 net594
*626 net595
*627 net596
*628 net597
*629 net598
*630 net599
*631 net60
*632 net600
*633 net601
*634 net602
*635 net603
*636 net604
*637 net605
*638 net606
*639 net607
*640 net608
*641 net609
*642 net61
*643 net610
*644 net611
*645 net612
*646 net613
*647 net614
*648 net615
*649 net616
*650 net617
*651 net618
*652 net619
*653 net62
*654 net620
*655 net621
*656 net622
*657 net623
*658 net624
*659 net625
*660 net626
*661 net627
*662 net628
*663 net629
*664 net63
*665 net630
*666 net631
*667 net632
*668 net633
*669 net634
*670 net635
*671 net636
*672 net637
*673 net638
*674 net639
*675 net64
*676 net640
*677 net641
*678 net642
*679 net643
*680 net644
*681 net645
*682 net646
*683 net647
*684 net648
*685 net649
*686 net65
*687 net650
*688 net651
*689 net652
*690 net653
*691 net654
*692 net655
*693 net656
*694 net657
*695 net658
*696 net659
*697 net66
*698 net660
*699 net661
*700 net662
*701 net663
*702 net664
*703 net665
*704 net666
*705 net667
*706 net668
*707 net669
*708 net67
*709 net670
*710 net671
*711 net672
*712 net673
*713 net674
*714 net675
*715 net676
*716 net68
*717 net69
*718 net70
*719 net71
*720 net72
*721 net73
*722 net74
*723 net75
*724 net76
*725 net77
*726 net78
*727 net79
*728 net80
*729 net81
*730 net82
*731 net83
*732 net84
*733 net85
*734 net86
*735 net87
*736 net88
*737 net89
*738 net90
*739 net91
*740 net92
*741 net93
*742 net94
*743 net95
*744 net96
*745 net97
*746 net98
*747 net99
*748 u_ppwm/global_counter_high\[0\]
*749 u_ppwm/global_counter_high\[10\]
*750 u_ppwm/global_counter_high\[11\]
*751 u_ppwm/global_counter_high\[12\]
*752 u_ppwm/global_counter_high\[13\]
*753 u_ppwm/global_counter_high\[14\]
*754 u_ppwm/global_counter_high\[15\]
*755 u_ppwm/global_counter_high\[16\]
*756 u_ppwm/global_counter_high\[17\]
*757 u_ppwm/global_counter_high\[18\]
*758 u_ppwm/global_counter_high\[19\]
*759 u_ppwm/global_counter_high\[1\]
*760 u_ppwm/global_counter_high\[2\]
*761 u_ppwm/global_counter_high\[3\]
*762 u_ppwm/global_counter_high\[4\]
*763 u_ppwm/global_counter_high\[5\]
*764 u_ppwm/global_counter_high\[6\]
*765 u_ppwm/global_counter_high\[7\]
*766 u_ppwm/global_counter_high\[8\]
*767 u_ppwm/global_counter_high\[9\]
*768 u_ppwm/instr\[0\]
*769 u_ppwm/instr\[1\]
*770 u_ppwm/instr\[2\]
*771 u_ppwm/instr\[3\]
*772 u_ppwm/instr\[4\]
*773 u_ppwm/instr\[5\]
*774 u_ppwm/instr\[6\]
*775 u_ppwm/mem_write_done
*776 u_ppwm/pc\[0\]
*777 u_ppwm/pc\[1\]
*778 u_ppwm/pc\[2\]
*779 u_ppwm/pc\[3\]
*780 u_ppwm/period_start
*781 u_ppwm/pwm_value\[0\]
*782 u_ppwm/pwm_value\[1\]
*783 u_ppwm/pwm_value\[2\]
*784 u_ppwm/pwm_value\[3\]
*785 u_ppwm/pwm_value\[4\]
*786 u_ppwm/pwm_value\[5\]
*787 u_ppwm/pwm_value\[6\]
*788 u_ppwm/pwm_value\[7\]
*789 u_ppwm/pwm_value\[8\]
*790 u_ppwm/pwm_value\[9\]
*791 u_ppwm/u_ex/_000_
*792 u_ppwm/u_ex/_001_
*793 u_ppwm/u_ex/_002_
*794 u_ppwm/u_ex/_003_
*795 u_ppwm/u_ex/_004_
*796 u_ppwm/u_ex/_005_
*797 u_ppwm/u_ex/_006_
*798 u_ppwm/u_ex/_007_
*799 u_ppwm/u_ex/_008_
*800 u_ppwm/u_ex/_009_
*801 u_ppwm/u_ex/_010_
*802 u_ppwm/u_ex/_011_
*803 u_ppwm/u_ex/_012_
*804 u_ppwm/u_ex/_013_
*805 u_ppwm/u_ex/_014_
*806 u_ppwm/u_ex/_015_
*807 u_ppwm/u_ex/_016_
*808 u_ppwm/u_ex/_017_
*809 u_ppwm/u_ex/_018_
*810 u_ppwm/u_ex/_019_
*811 u_ppwm/u_ex/_020_
*812 u_ppwm/u_ex/_021_
*813 u_ppwm/u_ex/_022_
*814 u_ppwm/u_ex/_023_
*815 u_ppwm/u_ex/_024_
*816 u_ppwm/u_ex/_025_
*817 u_ppwm/u_ex/_026_
*818 u_ppwm/u_ex/_027_
*819 u_ppwm/u_ex/_028_
*820 u_ppwm/u_ex/_029_
*821 u_ppwm/u_ex/_030_
*822 u_ppwm/u_ex/_031_
*823 u_ppwm/u_ex/_032_
*824 u_ppwm/u_ex/_033_
*825 u_ppwm/u_ex/_034_
*826 u_ppwm/u_ex/_035_
*827 u_ppwm/u_ex/_036_
*828 u_ppwm/u_ex/_037_
*829 u_ppwm/u_ex/_038_
*830 u_ppwm/u_ex/_039_
*831 u_ppwm/u_ex/_040_
*832 u_ppwm/u_ex/_041_
*833 u_ppwm/u_ex/_042_
*834 u_ppwm/u_ex/_043_
*835 u_ppwm/u_ex/_044_
*836 u_ppwm/u_ex/_045_
*837 u_ppwm/u_ex/_046_
*838 u_ppwm/u_ex/_047_
*839 u_ppwm/u_ex/_048_
*840 u_ppwm/u_ex/_049_
*841 u_ppwm/u_ex/_050_
*842 u_ppwm/u_ex/_051_
*843 u_ppwm/u_ex/_052_
*844 u_ppwm/u_ex/_053_
*845 u_ppwm/u_ex/_054_
*846 u_ppwm/u_ex/_055_
*847 u_ppwm/u_ex/_056_
*848 u_ppwm/u_ex/_057_
*849 u_ppwm/u_ex/_058_
*850 u_ppwm/u_ex/_059_
*851 u_ppwm/u_ex/_060_
*852 u_ppwm/u_ex/_061_
*853 u_ppwm/u_ex/_062_
*854 u_ppwm/u_ex/_063_
*855 u_ppwm/u_ex/_064_
*856 u_ppwm/u_ex/_065_
*857 u_ppwm/u_ex/_066_
*858 u_ppwm/u_ex/_067_
*859 u_ppwm/u_ex/_068_
*860 u_ppwm/u_ex/_069_
*861 u_ppwm/u_ex/_070_
*862 u_ppwm/u_ex/_071_
*863 u_ppwm/u_ex/_072_
*864 u_ppwm/u_ex/_073_
*865 u_ppwm/u_ex/_074_
*866 u_ppwm/u_ex/_075_
*867 u_ppwm/u_ex/_076_
*868 u_ppwm/u_ex/_077_
*869 u_ppwm/u_ex/_078_
*870 u_ppwm/u_ex/_079_
*871 u_ppwm/u_ex/_080_
*872 u_ppwm/u_ex/_081_
*873 u_ppwm/u_ex/_082_
*874 u_ppwm/u_ex/_083_
*875 u_ppwm/u_ex/_084_
*876 u_ppwm/u_ex/_085_
*877 u_ppwm/u_ex/_086_
*878 u_ppwm/u_ex/_087_
*879 u_ppwm/u_ex/_088_
*880 u_ppwm/u_ex/_089_
*881 u_ppwm/u_ex/_090_
*882 u_ppwm/u_ex/_091_
*883 u_ppwm/u_ex/_092_
*884 u_ppwm/u_ex/_093_
*885 u_ppwm/u_ex/_094_
*886 u_ppwm/u_ex/_095_
*887 u_ppwm/u_ex/_096_
*888 u_ppwm/u_ex/_097_
*889 u_ppwm/u_ex/_098_
*890 u_ppwm/u_ex/_099_
*891 u_ppwm/u_ex/_100_
*892 u_ppwm/u_ex/_101_
*893 u_ppwm/u_ex/_102_
*894 u_ppwm/u_ex/_103_
*895 u_ppwm/u_ex/_104_
*896 u_ppwm/u_ex/_105_
*897 u_ppwm/u_ex/_106_
*898 u_ppwm/u_ex/_107_
*899 u_ppwm/u_ex/_108_
*900 u_ppwm/u_ex/_109_
*901 u_ppwm/u_ex/_110_
*902 u_ppwm/u_ex/_111_
*903 u_ppwm/u_ex/_112_
*904 u_ppwm/u_ex/_113_
*905 u_ppwm/u_ex/_114_
*906 u_ppwm/u_ex/_115_
*907 u_ppwm/u_ex/_116_
*908 u_ppwm/u_ex/_117_
*909 u_ppwm/u_ex/_118_
*910 u_ppwm/u_ex/_119_
*911 u_ppwm/u_ex/_120_
*912 u_ppwm/u_ex/_121_
*913 u_ppwm/u_ex/_122_
*914 u_ppwm/u_ex/_123_
*915 u_ppwm/u_ex/_124_
*916 u_ppwm/u_ex/_125_
*917 u_ppwm/u_ex/_126_
*918 u_ppwm/u_ex/_127_
*919 u_ppwm/u_ex/_128_
*920 u_ppwm/u_ex/_129_
*921 u_ppwm/u_ex/_130_
*922 u_ppwm/u_ex/_131_
*923 u_ppwm/u_ex/_132_
*924 u_ppwm/u_ex/_133_
*925 u_ppwm/u_ex/_134_
*926 u_ppwm/u_ex/_135_
*927 u_ppwm/u_ex/_136_
*928 u_ppwm/u_ex/_137_
*929 u_ppwm/u_ex/_138_
*930 u_ppwm/u_ex/_139_
*931 u_ppwm/u_ex/_140_
*932 u_ppwm/u_ex/_141_
*933 u_ppwm/u_ex/_142_
*934 u_ppwm/u_ex/_143_
*935 u_ppwm/u_ex/_144_
*936 u_ppwm/u_ex/_145_
*937 u_ppwm/u_ex/_146_
*938 u_ppwm/u_ex/_147_
*939 u_ppwm/u_ex/_148_
*940 u_ppwm/u_ex/_149_
*941 u_ppwm/u_ex/_150_
*942 u_ppwm/u_ex/_151_
*943 u_ppwm/u_ex/_152_
*944 u_ppwm/u_ex/_153_
*945 u_ppwm/u_ex/_154_
*946 u_ppwm/u_ex/_155_
*947 u_ppwm/u_ex/_156_
*948 u_ppwm/u_ex/_157_
*949 u_ppwm/u_ex/_158_
*950 u_ppwm/u_ex/_159_
*951 u_ppwm/u_ex/_160_
*952 u_ppwm/u_ex/_161_
*953 u_ppwm/u_ex/_162_
*954 u_ppwm/u_ex/_163_
*955 u_ppwm/u_ex/_164_
*956 u_ppwm/u_ex/_165_
*957 u_ppwm/u_ex/_166_
*958 u_ppwm/u_ex/_167_
*959 u_ppwm/u_ex/_168_
*960 u_ppwm/u_ex/_169_
*961 u_ppwm/u_ex/_170_
*962 u_ppwm/u_ex/_171_
*963 u_ppwm/u_ex/_172_
*964 u_ppwm/u_ex/_173_
*965 u_ppwm/u_ex/_174_
*966 u_ppwm/u_ex/_175_
*967 u_ppwm/u_ex/_176_
*968 u_ppwm/u_ex/_177_
*969 u_ppwm/u_ex/_178_
*970 u_ppwm/u_ex/_179_
*971 u_ppwm/u_ex/_180_
*972 u_ppwm/u_ex/_181_
*973 u_ppwm/u_ex/_182_
*974 u_ppwm/u_ex/_183_
*975 u_ppwm/u_ex/_184_
*976 u_ppwm/u_ex/_185_
*977 u_ppwm/u_ex/_186_
*978 u_ppwm/u_ex/_187_
*979 u_ppwm/u_ex/_188_
*980 u_ppwm/u_ex/_189_
*981 u_ppwm/u_ex/_190_
*982 u_ppwm/u_ex/_191_
*983 u_ppwm/u_ex/_192_
*984 u_ppwm/u_ex/_193_
*985 u_ppwm/u_ex/_194_
*986 u_ppwm/u_ex/_195_
*987 u_ppwm/u_ex/_196_
*988 u_ppwm/u_ex/_197_
*989 u_ppwm/u_ex/_198_
*990 u_ppwm/u_ex/_199_
*991 u_ppwm/u_ex/_200_
*992 u_ppwm/u_ex/_201_
*993 u_ppwm/u_ex/_202_
*994 u_ppwm/u_ex/_203_
*995 u_ppwm/u_ex/_204_
*996 u_ppwm/u_ex/_205_
*997 u_ppwm/u_ex/_206_
*998 u_ppwm/u_ex/_207_
*999 u_ppwm/u_ex/_208_
*1000 u_ppwm/u_ex/_209_
*1001 u_ppwm/u_ex/_210_
*1002 u_ppwm/u_ex/_211_
*1003 u_ppwm/u_ex/_212_
*1004 u_ppwm/u_ex/_213_
*1005 u_ppwm/u_ex/_214_
*1006 u_ppwm/u_ex/_215_
*1007 u_ppwm/u_ex/_216_
*1008 u_ppwm/u_ex/_217_
*1009 u_ppwm/u_ex/_218_
*1010 u_ppwm/u_ex/_219_
*1011 u_ppwm/u_ex/_220_
*1012 u_ppwm/u_ex/_221_
*1013 u_ppwm/u_ex/_222_
*1014 u_ppwm/u_ex/_223_
*1015 u_ppwm/u_ex/_224_
*1016 u_ppwm/u_ex/_225_
*1017 u_ppwm/u_ex/_226_
*1018 u_ppwm/u_ex/_227_
*1019 u_ppwm/u_ex/_228_
*1020 u_ppwm/u_ex/_229_
*1021 u_ppwm/u_ex/_230_
*1022 u_ppwm/u_ex/_231_
*1023 u_ppwm/u_ex/_232_
*1024 u_ppwm/u_ex/_233_
*1025 u_ppwm/u_ex/_234_
*1026 u_ppwm/u_ex/_235_
*1027 u_ppwm/u_ex/_236_
*1028 u_ppwm/u_ex/_237_
*1029 u_ppwm/u_ex/_238_
*1030 u_ppwm/u_ex/_239_
*1031 u_ppwm/u_ex/_240_
*1032 u_ppwm/u_ex/_241_
*1033 u_ppwm/u_ex/_242_
*1034 u_ppwm/u_ex/_243_
*1035 u_ppwm/u_ex/_244_
*1036 u_ppwm/u_ex/_245_
*1037 u_ppwm/u_ex/_246_
*1038 u_ppwm/u_ex/_247_
*1039 u_ppwm/u_ex/_248_
*1040 u_ppwm/u_ex/_249_
*1041 u_ppwm/u_ex/_250_
*1042 u_ppwm/u_ex/_251_
*1043 u_ppwm/u_ex/_252_
*1044 u_ppwm/u_ex/_253_
*1045 u_ppwm/u_ex/_254_
*1046 u_ppwm/u_ex/_255_
*1047 u_ppwm/u_ex/_256_
*1048 u_ppwm/u_ex/_257_
*1049 u_ppwm/u_ex/_258_
*1050 u_ppwm/u_ex/_259_
*1051 u_ppwm/u_ex/_260_
*1052 u_ppwm/u_ex/_261_
*1053 u_ppwm/u_ex/_262_
*1054 u_ppwm/u_ex/_263_
*1055 u_ppwm/u_ex/_264_
*1056 u_ppwm/u_ex/_265_
*1057 u_ppwm/u_ex/_266_
*1058 u_ppwm/u_ex/_267_
*1059 u_ppwm/u_ex/_268_
*1060 u_ppwm/u_ex/_269_
*1061 u_ppwm/u_ex/_270_
*1062 u_ppwm/u_ex/_271_
*1063 u_ppwm/u_ex/_272_
*1064 u_ppwm/u_ex/_273_
*1065 u_ppwm/u_ex/_274_
*1066 u_ppwm/u_ex/_275_
*1067 u_ppwm/u_ex/_276_
*1068 u_ppwm/u_ex/_277_
*1069 u_ppwm/u_ex/_278_
*1070 u_ppwm/u_ex/_279_
*1071 u_ppwm/u_ex/_280_
*1072 u_ppwm/u_ex/_281_
*1073 u_ppwm/u_ex/_282_
*1074 u_ppwm/u_ex/_283_
*1075 u_ppwm/u_ex/_284_
*1076 u_ppwm/u_ex/_285_
*1077 u_ppwm/u_ex/_286_
*1078 u_ppwm/u_ex/_287_
*1079 u_ppwm/u_ex/_288_
*1080 u_ppwm/u_ex/_289_
*1081 u_ppwm/u_ex/_290_
*1082 u_ppwm/u_ex/_291_
*1083 u_ppwm/u_ex/_292_
*1084 u_ppwm/u_ex/_293_
*1085 u_ppwm/u_ex/_294_
*1086 u_ppwm/u_ex/_295_
*1087 u_ppwm/u_ex/_296_
*1088 u_ppwm/u_ex/_297_
*1089 u_ppwm/u_ex/_298_
*1090 u_ppwm/u_ex/_299_
*1091 u_ppwm/u_ex/_300_
*1092 u_ppwm/u_ex/_301_
*1093 u_ppwm/u_ex/_302_
*1094 u_ppwm/u_ex/_303_
*1095 u_ppwm/u_ex/_304_
*1096 u_ppwm/u_ex/_305_
*1097 u_ppwm/u_ex/_306_
*1098 u_ppwm/u_ex/_307_
*1099 u_ppwm/u_ex/_308_
*1100 u_ppwm/u_ex/_309_
*1101 u_ppwm/u_ex/_310_
*1102 u_ppwm/u_ex/_311_
*1103 u_ppwm/u_ex/_312_
*1104 u_ppwm/u_ex/_313_
*1105 u_ppwm/u_ex/_314_
*1106 u_ppwm/u_ex/_315_
*1107 u_ppwm/u_ex/_316_
*1108 u_ppwm/u_ex/_317_
*1109 u_ppwm/u_ex/_318_
*1110 u_ppwm/u_ex/_319_
*1111 u_ppwm/u_ex/_320_
*1112 u_ppwm/u_ex/_321_
*1113 u_ppwm/u_ex/_322_
*1114 u_ppwm/u_ex/_323_
*1115 u_ppwm/u_ex/_324_
*1116 u_ppwm/u_ex/_325_
*1117 u_ppwm/u_ex/_326_
*1118 u_ppwm/u_ex/_327_
*1119 u_ppwm/u_ex/_328_
*1120 u_ppwm/u_ex/_329_
*1121 u_ppwm/u_ex/_330_
*1122 u_ppwm/u_ex/_331_
*1123 u_ppwm/u_ex/_332_
*1124 u_ppwm/u_ex/_333_
*1125 u_ppwm/u_ex/_334_
*1126 u_ppwm/u_ex/_335_
*1127 u_ppwm/u_ex/_336_
*1128 u_ppwm/u_ex/_337_
*1129 u_ppwm/u_ex/_338_
*1130 u_ppwm/u_ex/_339_
*1131 u_ppwm/u_ex/_340_
*1132 u_ppwm/u_ex/_341_
*1133 u_ppwm/u_ex/_342_
*1134 u_ppwm/u_ex/_343_
*1135 u_ppwm/u_ex/_344_
*1136 u_ppwm/u_ex/_345_
*1137 u_ppwm/u_ex/_346_
*1138 u_ppwm/u_ex/_347_
*1139 u_ppwm/u_ex/_348_
*1140 u_ppwm/u_ex/_349_
*1141 u_ppwm/u_ex/_350_
*1142 u_ppwm/u_ex/_351_
*1143 u_ppwm/u_ex/_352_
*1144 u_ppwm/u_ex/_353_
*1145 u_ppwm/u_ex/_354_
*1146 u_ppwm/u_ex/_355_
*1147 u_ppwm/u_ex/_356_
*1148 u_ppwm/u_ex/_357_
*1149 u_ppwm/u_ex/_358_
*1150 u_ppwm/u_ex/_359_
*1151 u_ppwm/u_ex/_360_
*1152 u_ppwm/u_ex/_361_
*1153 u_ppwm/u_ex/_362_
*1154 u_ppwm/u_ex/_363_
*1155 u_ppwm/u_ex/_364_
*1156 u_ppwm/u_ex/_365_
*1157 u_ppwm/u_ex/_366_
*1158 u_ppwm/u_ex/_367_
*1159 u_ppwm/u_ex/_368_
*1160 u_ppwm/u_ex/_369_
*1161 u_ppwm/u_ex/_370_
*1162 u_ppwm/u_ex/_371_
*1163 u_ppwm/u_ex/_372_
*1164 u_ppwm/u_ex/_373_
*1165 u_ppwm/u_ex/_374_
*1166 u_ppwm/u_ex/_375_
*1167 u_ppwm/u_ex/_376_
*1168 u_ppwm/u_ex/_377_
*1169 u_ppwm/u_ex/_378_
*1170 u_ppwm/u_ex/_379_
*1171 u_ppwm/u_ex/_380_
*1172 u_ppwm/u_ex/_381_
*1173 u_ppwm/u_ex/_382_
*1174 u_ppwm/u_ex/_383_
*1175 u_ppwm/u_ex/_384_
*1176 u_ppwm/u_ex/_385_
*1177 u_ppwm/u_ex/_386_
*1178 u_ppwm/u_ex/cmp_flag_q
*1179 u_ppwm/u_ex/reg_value_q\[0\]
*1180 u_ppwm/u_ex/reg_value_q\[1\]
*1181 u_ppwm/u_ex/reg_value_q\[2\]
*1182 u_ppwm/u_ex/reg_value_q\[3\]
*1183 u_ppwm/u_ex/reg_value_q\[4\]
*1184 u_ppwm/u_ex/reg_value_q\[5\]
*1185 u_ppwm/u_ex/reg_value_q\[6\]
*1186 u_ppwm/u_ex/reg_value_q\[7\]
*1187 u_ppwm/u_ex/reg_value_q\[8\]
*1188 u_ppwm/u_ex/reg_value_q\[9\]
*1189 u_ppwm/u_ex/state_q\[0\]
*1190 u_ppwm/u_ex/state_q\[1\]
*1191 u_ppwm/u_ex/state_q\[2\]
*1192 u_ppwm/u_global_counter/_000_
*1193 u_ppwm/u_global_counter/_001_
*1194 u_ppwm/u_global_counter/_002_
*1195 u_ppwm/u_global_counter/_003_
*1196 u_ppwm/u_global_counter/_004_
*1197 u_ppwm/u_global_counter/_005_
*1198 u_ppwm/u_global_counter/_006_
*1199 u_ppwm/u_global_counter/_007_
*1200 u_ppwm/u_global_counter/_008_
*1201 u_ppwm/u_global_counter/_009_
*1202 u_ppwm/u_global_counter/_010_
*1203 u_ppwm/u_global_counter/_011_
*1204 u_ppwm/u_global_counter/_012_
*1205 u_ppwm/u_global_counter/_013_
*1206 u_ppwm/u_global_counter/_014_
*1207 u_ppwm/u_global_counter/_015_
*1208 u_ppwm/u_global_counter/_016_
*1209 u_ppwm/u_global_counter/_017_
*1210 u_ppwm/u_global_counter/_018_
*1211 u_ppwm/u_global_counter/_019_
*1212 u_ppwm/u_global_counter/_020_
*1213 u_ppwm/u_global_counter/_021_
*1214 u_ppwm/u_global_counter/_022_
*1215 u_ppwm/u_global_counter/_023_
*1216 u_ppwm/u_global_counter/_024_
*1217 u_ppwm/u_global_counter/_025_
*1218 u_ppwm/u_global_counter/_026_
*1219 u_ppwm/u_global_counter/_027_
*1220 u_ppwm/u_global_counter/_028_
*1221 u_ppwm/u_global_counter/_029_
*1222 u_ppwm/u_global_counter/_030_
*1223 u_ppwm/u_global_counter/_031_
*1224 u_ppwm/u_global_counter/_032_
*1225 u_ppwm/u_global_counter/_033_
*1226 u_ppwm/u_global_counter/_034_
*1227 u_ppwm/u_global_counter/_035_
*1228 u_ppwm/u_global_counter/_036_
*1229 u_ppwm/u_global_counter/_037_
*1230 u_ppwm/u_global_counter/_038_
*1231 u_ppwm/u_global_counter/_039_
*1232 u_ppwm/u_global_counter/_040_
*1233 u_ppwm/u_global_counter/_041_
*1234 u_ppwm/u_global_counter/_042_
*1235 u_ppwm/u_global_counter/_043_
*1236 u_ppwm/u_global_counter/_044_
*1237 u_ppwm/u_global_counter/_045_
*1238 u_ppwm/u_global_counter/_046_
*1239 u_ppwm/u_global_counter/_047_
*1240 u_ppwm/u_global_counter/_048_
*1241 u_ppwm/u_global_counter/_049_
*1242 u_ppwm/u_global_counter/_050_
*1243 u_ppwm/u_global_counter/_051_
*1244 u_ppwm/u_global_counter/_052_
*1245 u_ppwm/u_mem/_0000_
*1246 u_ppwm/u_mem/_0001_
*1247 u_ppwm/u_mem/_0002_
*1248 u_ppwm/u_mem/_0003_
*1249 u_ppwm/u_mem/_0004_
*1250 u_ppwm/u_mem/_0005_
*1251 u_ppwm/u_mem/_0006_
*1252 u_ppwm/u_mem/_0007_
*1253 u_ppwm/u_mem/_0008_
*1254 u_ppwm/u_mem/_0009_
*1255 u_ppwm/u_mem/_0010_
*1256 u_ppwm/u_mem/_0011_
*1257 u_ppwm/u_mem/_0012_
*1258 u_ppwm/u_mem/_0013_
*1259 u_ppwm/u_mem/_0014_
*1260 u_ppwm/u_mem/_0015_
*1261 u_ppwm/u_mem/_0016_
*1262 u_ppwm/u_mem/_0017_
*1263 u_ppwm/u_mem/_0018_
*1264 u_ppwm/u_mem/_0019_
*1265 u_ppwm/u_mem/_0020_
*1266 u_ppwm/u_mem/_0021_
*1267 u_ppwm/u_mem/_0022_
*1268 u_ppwm/u_mem/_0023_
*1269 u_ppwm/u_mem/_0024_
*1270 u_ppwm/u_mem/_0025_
*1271 u_ppwm/u_mem/_0026_
*1272 u_ppwm/u_mem/_0027_
*1273 u_ppwm/u_mem/_0028_
*1274 u_ppwm/u_mem/_0029_
*1275 u_ppwm/u_mem/_0030_
*1276 u_ppwm/u_mem/_0031_
*1277 u_ppwm/u_mem/_0032_
*1278 u_ppwm/u_mem/_0033_
*1279 u_ppwm/u_mem/_0034_
*1280 u_ppwm/u_mem/_0035_
*1281 u_ppwm/u_mem/_0036_
*1282 u_ppwm/u_mem/_0037_
*1283 u_ppwm/u_mem/_0038_
*1284 u_ppwm/u_mem/_0039_
*1285 u_ppwm/u_mem/_0040_
*1286 u_ppwm/u_mem/_0041_
*1287 u_ppwm/u_mem/_0042_
*1288 u_ppwm/u_mem/_0043_
*1289 u_ppwm/u_mem/_0044_
*1290 u_ppwm/u_mem/_0045_
*1291 u_ppwm/u_mem/_0046_
*1292 u_ppwm/u_mem/_0047_
*1293 u_ppwm/u_mem/_0048_
*1294 u_ppwm/u_mem/_0049_
*1295 u_ppwm/u_mem/_0050_
*1296 u_ppwm/u_mem/_0051_
*1297 u_ppwm/u_mem/_0052_
*1298 u_ppwm/u_mem/_0053_
*1299 u_ppwm/u_mem/_0054_
*1300 u_ppwm/u_mem/_0055_
*1301 u_ppwm/u_mem/_0056_
*1302 u_ppwm/u_mem/_0057_
*1303 u_ppwm/u_mem/_0058_
*1304 u_ppwm/u_mem/_0059_
*1305 u_ppwm/u_mem/_0060_
*1306 u_ppwm/u_mem/_0061_
*1307 u_ppwm/u_mem/_0062_
*1308 u_ppwm/u_mem/_0063_
*1309 u_ppwm/u_mem/_0064_
*1310 u_ppwm/u_mem/_0065_
*1311 u_ppwm/u_mem/_0066_
*1312 u_ppwm/u_mem/_0067_
*1313 u_ppwm/u_mem/_0068_
*1314 u_ppwm/u_mem/_0069_
*1315 u_ppwm/u_mem/_0070_
*1316 u_ppwm/u_mem/_0071_
*1317 u_ppwm/u_mem/_0072_
*1318 u_ppwm/u_mem/_0073_
*1319 u_ppwm/u_mem/_0074_
*1320 u_ppwm/u_mem/_0075_
*1321 u_ppwm/u_mem/_0076_
*1322 u_ppwm/u_mem/_0077_
*1323 u_ppwm/u_mem/_0078_
*1324 u_ppwm/u_mem/_0079_
*1325 u_ppwm/u_mem/_0080_
*1326 u_ppwm/u_mem/_0081_
*1327 u_ppwm/u_mem/_0082_
*1328 u_ppwm/u_mem/_0083_
*1329 u_ppwm/u_mem/_0084_
*1330 u_ppwm/u_mem/_0085_
*1331 u_ppwm/u_mem/_0086_
*1332 u_ppwm/u_mem/_0087_
*1333 u_ppwm/u_mem/_0088_
*1334 u_ppwm/u_mem/_0089_
*1335 u_ppwm/u_mem/_0090_
*1336 u_ppwm/u_mem/_0091_
*1337 u_ppwm/u_mem/_0092_
*1338 u_ppwm/u_mem/_0093_
*1339 u_ppwm/u_mem/_0094_
*1340 u_ppwm/u_mem/_0095_
*1341 u_ppwm/u_mem/_0096_
*1342 u_ppwm/u_mem/_0097_
*1343 u_ppwm/u_mem/_0098_
*1344 u_ppwm/u_mem/_0099_
*1345 u_ppwm/u_mem/_0100_
*1346 u_ppwm/u_mem/_0101_
*1347 u_ppwm/u_mem/_0102_
*1348 u_ppwm/u_mem/_0103_
*1349 u_ppwm/u_mem/_0104_
*1350 u_ppwm/u_mem/_0105_
*1351 u_ppwm/u_mem/_0106_
*1352 u_ppwm/u_mem/_0107_
*1353 u_ppwm/u_mem/_0108_
*1354 u_ppwm/u_mem/_0109_
*1355 u_ppwm/u_mem/_0110_
*1356 u_ppwm/u_mem/_0111_
*1357 u_ppwm/u_mem/_0112_
*1358 u_ppwm/u_mem/_0113_
*1359 u_ppwm/u_mem/_0114_
*1360 u_ppwm/u_mem/_0115_
*1361 u_ppwm/u_mem/_0116_
*1362 u_ppwm/u_mem/_0117_
*1363 u_ppwm/u_mem/_0118_
*1364 u_ppwm/u_mem/_0119_
*1365 u_ppwm/u_mem/_0120_
*1366 u_ppwm/u_mem/_0121_
*1367 u_ppwm/u_mem/_0122_
*1368 u_ppwm/u_mem/_0123_
*1369 u_ppwm/u_mem/_0124_
*1370 u_ppwm/u_mem/_0125_
*1371 u_ppwm/u_mem/_0126_
*1372 u_ppwm/u_mem/_0127_
*1373 u_ppwm/u_mem/_0128_
*1374 u_ppwm/u_mem/_0129_
*1375 u_ppwm/u_mem/_0130_
*1376 u_ppwm/u_mem/_0131_
*1377 u_ppwm/u_mem/_0132_
*1378 u_ppwm/u_mem/_0133_
*1379 u_ppwm/u_mem/_0134_
*1380 u_ppwm/u_mem/_0135_
*1381 u_ppwm/u_mem/_0136_
*1382 u_ppwm/u_mem/_0137_
*1383 u_ppwm/u_mem/_0138_
*1384 u_ppwm/u_mem/_0139_
*1385 u_ppwm/u_mem/_0140_
*1386 u_ppwm/u_mem/_0141_
*1387 u_ppwm/u_mem/_0142_
*1388 u_ppwm/u_mem/_0143_
*1389 u_ppwm/u_mem/_0144_
*1390 u_ppwm/u_mem/_0145_
*1391 u_ppwm/u_mem/_0146_
*1392 u_ppwm/u_mem/_0147_
*1393 u_ppwm/u_mem/_0148_
*1394 u_ppwm/u_mem/_0149_
*1395 u_ppwm/u_mem/_0150_
*1396 u_ppwm/u_mem/_0151_
*1397 u_ppwm/u_mem/_0152_
*1398 u_ppwm/u_mem/_0153_
*1399 u_ppwm/u_mem/_0154_
*1400 u_ppwm/u_mem/_0155_
*1401 u_ppwm/u_mem/_0156_
*1402 u_ppwm/u_mem/_0157_
*1403 u_ppwm/u_mem/_0158_
*1404 u_ppwm/u_mem/_0159_
*1405 u_ppwm/u_mem/_0160_
*1406 u_ppwm/u_mem/_0161_
*1407 u_ppwm/u_mem/_0162_
*1408 u_ppwm/u_mem/_0163_
*1409 u_ppwm/u_mem/_0164_
*1410 u_ppwm/u_mem/_0165_
*1411 u_ppwm/u_mem/_0166_
*1412 u_ppwm/u_mem/_0167_
*1413 u_ppwm/u_mem/_0168_
*1414 u_ppwm/u_mem/_0169_
*1415 u_ppwm/u_mem/_0170_
*1416 u_ppwm/u_mem/_0171_
*1417 u_ppwm/u_mem/_0172_
*1418 u_ppwm/u_mem/_0173_
*1419 u_ppwm/u_mem/_0174_
*1420 u_ppwm/u_mem/_0175_
*1421 u_ppwm/u_mem/_0176_
*1422 u_ppwm/u_mem/_0177_
*1423 u_ppwm/u_mem/_0178_
*1424 u_ppwm/u_mem/_0179_
*1425 u_ppwm/u_mem/_0180_
*1426 u_ppwm/u_mem/_0181_
*1427 u_ppwm/u_mem/_0182_
*1428 u_ppwm/u_mem/_0183_
*1429 u_ppwm/u_mem/_0184_
*1430 u_ppwm/u_mem/_0185_
*1431 u_ppwm/u_mem/_0186_
*1432 u_ppwm/u_mem/_0187_
*1433 u_ppwm/u_mem/_0188_
*1434 u_ppwm/u_mem/_0189_
*1435 u_ppwm/u_mem/_0190_
*1436 u_ppwm/u_mem/_0191_
*1437 u_ppwm/u_mem/_0192_
*1438 u_ppwm/u_mem/_0193_
*1439 u_ppwm/u_mem/_0194_
*1440 u_ppwm/u_mem/_0195_
*1441 u_ppwm/u_mem/_0196_
*1442 u_ppwm/u_mem/_0197_
*1443 u_ppwm/u_mem/_0198_
*1444 u_ppwm/u_mem/_0199_
*1445 u_ppwm/u_mem/_0200_
*1446 u_ppwm/u_mem/_0201_
*1447 u_ppwm/u_mem/_0202_
*1448 u_ppwm/u_mem/_0203_
*1449 u_ppwm/u_mem/_0204_
*1450 u_ppwm/u_mem/_0205_
*1451 u_ppwm/u_mem/_0206_
*1452 u_ppwm/u_mem/_0207_
*1453 u_ppwm/u_mem/_0208_
*1454 u_ppwm/u_mem/_0209_
*1455 u_ppwm/u_mem/_0210_
*1456 u_ppwm/u_mem/_0211_
*1457 u_ppwm/u_mem/_0212_
*1458 u_ppwm/u_mem/_0213_
*1459 u_ppwm/u_mem/_0214_
*1460 u_ppwm/u_mem/_0215_
*1461 u_ppwm/u_mem/_0216_
*1462 u_ppwm/u_mem/_0217_
*1463 u_ppwm/u_mem/_0218_
*1464 u_ppwm/u_mem/_0219_
*1465 u_ppwm/u_mem/_0220_
*1466 u_ppwm/u_mem/_0221_
*1467 u_ppwm/u_mem/_0222_
*1468 u_ppwm/u_mem/_0223_
*1469 u_ppwm/u_mem/_0224_
*1470 u_ppwm/u_mem/_0225_
*1471 u_ppwm/u_mem/_0226_
*1472 u_ppwm/u_mem/_0227_
*1473 u_ppwm/u_mem/_0228_
*1474 u_ppwm/u_mem/_0229_
*1475 u_ppwm/u_mem/_0230_
*1476 u_ppwm/u_mem/_0231_
*1477 u_ppwm/u_mem/_0232_
*1478 u_ppwm/u_mem/_0233_
*1479 u_ppwm/u_mem/_0234_
*1480 u_ppwm/u_mem/_0235_
*1481 u_ppwm/u_mem/_0236_
*1482 u_ppwm/u_mem/_0237_
*1483 u_ppwm/u_mem/_0238_
*1484 u_ppwm/u_mem/_0239_
*1485 u_ppwm/u_mem/_0240_
*1486 u_ppwm/u_mem/_0241_
*1487 u_ppwm/u_mem/_0242_
*1488 u_ppwm/u_mem/_0243_
*1489 u_ppwm/u_mem/_0244_
*1490 u_ppwm/u_mem/_0245_
*1491 u_ppwm/u_mem/_0246_
*1492 u_ppwm/u_mem/_0247_
*1493 u_ppwm/u_mem/_0248_
*1494 u_ppwm/u_mem/_0249_
*1495 u_ppwm/u_mem/_0250_
*1496 u_ppwm/u_mem/_0251_
*1497 u_ppwm/u_mem/_0252_
*1498 u_ppwm/u_mem/_0253_
*1499 u_ppwm/u_mem/_0254_
*1500 u_ppwm/u_mem/_0255_
*1501 u_ppwm/u_mem/_0256_
*1502 u_ppwm/u_mem/_0257_
*1503 u_ppwm/u_mem/_0258_
*1504 u_ppwm/u_mem/_0259_
*1505 u_ppwm/u_mem/_0260_
*1506 u_ppwm/u_mem/_0261_
*1507 u_ppwm/u_mem/_0262_
*1508 u_ppwm/u_mem/_0263_
*1509 u_ppwm/u_mem/_0264_
*1510 u_ppwm/u_mem/_0265_
*1511 u_ppwm/u_mem/_0266_
*1512 u_ppwm/u_mem/_0267_
*1513 u_ppwm/u_mem/_0268_
*1514 u_ppwm/u_mem/_0269_
*1515 u_ppwm/u_mem/_0270_
*1516 u_ppwm/u_mem/_0271_
*1517 u_ppwm/u_mem/_0272_
*1518 u_ppwm/u_mem/_0273_
*1519 u_ppwm/u_mem/_0274_
*1520 u_ppwm/u_mem/_0275_
*1521 u_ppwm/u_mem/_0276_
*1522 u_ppwm/u_mem/_0277_
*1523 u_ppwm/u_mem/_0278_
*1524 u_ppwm/u_mem/_0279_
*1525 u_ppwm/u_mem/_0280_
*1526 u_ppwm/u_mem/_0281_
*1527 u_ppwm/u_mem/_0282_
*1528 u_ppwm/u_mem/_0283_
*1529 u_ppwm/u_mem/_0284_
*1530 u_ppwm/u_mem/_0285_
*1531 u_ppwm/u_mem/_0286_